41 41 41
Available num physical pages: 35184372088576
WARNING: physical memory size is smaller than virtual memory size

*** ChampSim Multicore Out-of-Order Simulator ***

Warmup Instructions: 200000000
Simulation Instructions: 200000000
Number of CPUs: 1
Page size: 4096

Basic BTB sets: 1024 ways: 8 indirect buffer size: 4096 RAS size: 64
cpu0_L1D SMS_1_Offsets prefetcher
Off-chip DRAM Size: 4 GiB Channels: 1 Width: 64-bit Data Rate: 3200 MT/s
Heartbeat CPU 0 instructions: 10000003 cycles: 2500068 heartbeat IPC: 3.9999 cumulative IPC: 3.9999 (Simulation time: 0 hr 2 min 53 sec) 
Heartbeat CPU 0 instructions: 20000000 cycles: 5000119 heartbeat IPC: 3.99992 cumulative IPC: 3.99991 (Simulation time: 0 hr 8 min 7 sec) 
Heartbeat CPU 0 instructions: 30000000 cycles: 7500119 heartbeat IPC: 4 cumulative IPC: 3.99994 (Simulation time: 0 hr 13 min 21 sec) 
Heartbeat CPU 0 instructions: 40000000 cycles: 10000119 heartbeat IPC: 4 cumulative IPC: 3.99996 (Simulation time: 0 hr 18 min 27 sec) 
Heartbeat CPU 0 instructions: 50000000 cycles: 12500119 heartbeat IPC: 4 cumulative IPC: 3.99997 (Simulation time: 0 hr 23 min 57 sec) 
Heartbeat CPU 0 instructions: 60000000 cycles: 15000119 heartbeat IPC: 4 cumulative IPC: 3.99997 (Simulation time: 0 hr 29 min 27 sec) 
Heartbeat CPU 0 instructions: 70000000 cycles: 17500119 heartbeat IPC: 4 cumulative IPC: 3.99998 (Simulation time: 0 hr 34 min 58 sec) 
Heartbeat CPU 0 instructions: 80000000 cycles: 20000119 heartbeat IPC: 4 cumulative IPC: 3.99998 (Simulation time: 0 hr 40 min 34 sec) 
Heartbeat CPU 0 instructions: 90000000 cycles: 22500119 heartbeat IPC: 4 cumulative IPC: 3.99998 (Simulation time: 0 hr 46 min 4 sec) 
Heartbeat CPU 0 instructions: 100000000 cycles: 25000119 heartbeat IPC: 4 cumulative IPC: 3.99999 (Simulation time: 0 hr 51 min 43 sec) 
Heartbeat CPU 0 instructions: 110000000 cycles: 27500119 heartbeat IPC: 4 cumulative IPC: 3.99999 (Simulation time: 0 hr 57 min 5 sec) 
Heartbeat CPU 0 instructions: 120000000 cycles: 30000119 heartbeat IPC: 4 cumulative IPC: 3.99999 (Simulation time: 1 hr 2 min 43 sec) 
Heartbeat CPU 0 instructions: 130000000 cycles: 32500119 heartbeat IPC: 4 cumulative IPC: 3.99999 (Simulation time: 1 hr 8 min 35 sec) 
Heartbeat CPU 0 instructions: 140000000 cycles: 35000119 heartbeat IPC: 4 cumulative IPC: 3.99999 (Simulation time: 1 hr 14 min 25 sec) 
Heartbeat CPU 0 instructions: 150000000 cycles: 37500119 heartbeat IPC: 4 cumulative IPC: 3.99999 (Simulation time: 1 hr 19 min 51 sec) 
Heartbeat CPU 0 instructions: 160000000 cycles: 40000119 heartbeat IPC: 4 cumulative IPC: 3.99999 (Simulation time: 1 hr 25 min 7 sec) 
Heartbeat CPU 0 instructions: 170000000 cycles: 42500119 heartbeat IPC: 4 cumulative IPC: 3.99999 (Simulation time: 1 hr 30 min 4 sec) 
Heartbeat CPU 0 instructions: 180000000 cycles: 45000119 heartbeat IPC: 4 cumulative IPC: 3.99999 (Simulation time: 1 hr 34 min 53 sec) 
Heartbeat CPU 0 instructions: 190000000 cycles: 47500119 heartbeat IPC: 4 cumulative IPC: 3.99999 (Simulation time: 1 hr 39 min 25 sec) 
Heartbeat CPU 0 instructions: 200000002 cycles: 50000180 heartbeat IPC: 3.99991 cumulative IPC: 3.99999 (Simulation time: 1 hr 43 min 2 sec) 
Max paddr 137M
Warmup finished CPU 0 instructions: 200000002 cycles: 50000181 cumulative IPC: 3.99999 (Simulation time: 1 hr 43 min 2 sec) 

Warmup complete CPU 0 instructions: 200000002 cycles: 50000181 (Simulation time: 1 hr 43 min 2 sec) 

Heartbeat CPU 0 instructions: 210000003 cycles: 95885887 heartbeat IPC: 0.217933 cumulative IPC: 0.217933 (Simulation time: 2 hr 15 min 53 sec) 
Heartbeat CPU 0 instructions: 220000001 cycles: 141773832 heartbeat IPC: 0.217923 cumulative IPC: 0.217928 (Simulation time: 2 hr 48 min 47 sec) 
Heartbeat CPU 0 instructions: 230000004 cycles: 187704359 heartbeat IPC: 0.217721 cumulative IPC: 0.217859 (Simulation time: 3 hr 20 min 48 sec) 
Heartbeat CPU 0 instructions: 240000003 cycles: 233865546 heartbeat IPC: 0.216633 cumulative IPC: 0.217551 (Simulation time: 3 hr 47 min 12 sec) 
