41 41 41
Available num physical pages: 35184372088576
WARNING: physical memory size is smaller than virtual memory size

*** ChampSim Multicore Out-of-Order Simulator ***

Warmup Instructions: 200000000
Simulation Instructions: 200000000
Number of CPUs: 1
Page size: 4096

Basic BTB sets: 1024 ways: 8 indirect buffer size: 4096 RAS size: 64
cpu0_L1D SMS_1_Offsets prefetcher
Off-chip DRAM Size: 4 GiB Channels: 1 Width: 64-bit Data Rate: 3200 MT/s
Heartbeat CPU 0 instructions: 10000001 cycles: 2750195 heartbeat IPC: 3.63611 cumulative IPC: 3.63611 (Simulation time: 0 hr 5 min 45 sec) 
Heartbeat CPU 0 instructions: 20000004 cycles: 5607334 heartbeat IPC: 3.50001 cumulative IPC: 3.56676 (Simulation time: 0 hr 12 min 27 sec) 
Heartbeat CPU 0 instructions: 30000001 cycles: 8369738 heartbeat IPC: 3.62004 cumulative IPC: 3.58435 (Simulation time: 0 hr 18 min 16 sec) 
Heartbeat CPU 0 instructions: 40000000 cycles: 11093142 heartbeat IPC: 3.67188 cumulative IPC: 3.60584 (Simulation time: 0 hr 23 min 39 sec) 
Heartbeat CPU 0 instructions: 50000001 cycles: 13818077 heartbeat IPC: 3.66982 cumulative IPC: 3.61845 (Simulation time: 0 hr 29 min 1 sec) 
Heartbeat CPU 0 instructions: 60000002 cycles: 16545350 heartbeat IPC: 3.66667 cumulative IPC: 3.6264 (Simulation time: 0 hr 34 min 25 sec) 
Heartbeat CPU 0 instructions: 70000004 cycles: 19284474 heartbeat IPC: 3.65081 cumulative IPC: 3.62987 (Simulation time: 0 hr 39 min 53 sec) 
Heartbeat CPU 0 instructions: 80000004 cycles: 22141615 heartbeat IPC: 3.50001 cumulative IPC: 3.61311 (Simulation time: 0 hr 46 min 23 sec) 
Heartbeat CPU 0 instructions: 90000003 cycles: 24915395 heartbeat IPC: 3.60519 cumulative IPC: 3.61223 (Simulation time: 0 hr 52 min 13 sec) 
Heartbeat CPU 0 instructions: 100000000 cycles: 27638799 heartbeat IPC: 3.67188 cumulative IPC: 3.61811 (Simulation time: 0 hr 57 min 38 sec) 
Heartbeat CPU 0 instructions: 110000004 cycles: 30360987 heartbeat IPC: 3.67352 cumulative IPC: 3.62308 (Simulation time: 1 hr 3 min 1 sec) 
Heartbeat CPU 0 instructions: 120000003 cycles: 33080533 heartbeat IPC: 3.67709 cumulative IPC: 3.62752 (Simulation time: 1 hr 8 min 26 sec) 
Heartbeat CPU 0 instructions: 130000003 cycles: 35800081 heartbeat IPC: 3.67709 cumulative IPC: 3.63128 (Simulation time: 1 hr 13 min 49 sec) 
Heartbeat CPU 0 instructions: 140000000 cycles: 38657173 heartbeat IPC: 3.50007 cumulative IPC: 3.62158 (Simulation time: 1 hr 20 min 22 sec) 
Heartbeat CPU 0 instructions: 150000002 cycles: 41443203 heartbeat IPC: 3.58934 cumulative IPC: 3.61942 (Simulation time: 1 hr 26 min 15 sec) 
Heartbeat CPU 0 instructions: 160000000 cycles: 44166606 heartbeat IPC: 3.67188 cumulative IPC: 3.62265 (Simulation time: 1 hr 31 min 41 sec) 
Heartbeat CPU 0 instructions: 170000001 cycles: 46888296 heartbeat IPC: 3.67419 cumulative IPC: 3.62564 (Simulation time: 1 hr 37 min 7 sec) 
Heartbeat CPU 0 instructions: 180000003 cycles: 49603997 heartbeat IPC: 3.6823 cumulative IPC: 3.62874 (Simulation time: 1 hr 42 min 36 sec) 
Heartbeat CPU 0 instructions: 190000004 cycles: 52319696 heartbeat IPC: 3.6823 cumulative IPC: 3.63152 (Simulation time: 1 hr 48 min 4 sec) 
Heartbeat CPU 0 instructions: 200000000 cycles: 55163367 heartbeat IPC: 3.51658 cumulative IPC: 3.6256 (Simulation time: 1 hr 54 min 29 sec) 
Max paddr 33M
Warmup finished CPU 0 instructions: 200000000 cycles: 55163368 cumulative IPC: 3.6256 (Simulation time: 1 hr 54 min 29 sec) 

Warmup complete CPU 0 instructions: 200000000 cycles: 55163368 (Simulation time: 1 hr 54 min 29 sec) 

Heartbeat CPU 0 instructions: 210000002 cycles: 71568269 heartbeat IPC: 0.609575 cumulative IPC: 0.609575 (Simulation time: 2 hr 16 min 40 sec) 
Heartbeat CPU 0 instructions: 220000003 cycles: 75278134 heartbeat IPC: 2.69552 cumulative IPC: 0.994295 (Simulation time: 2 hr 23 min 48 sec) 
Heartbeat CPU 0 instructions: 230000000 cycles: 79583606 heartbeat IPC: 2.32263 cumulative IPC: 1.22849 (Simulation time: 2 hr 31 min 58 sec) 
Heartbeat CPU 0 instructions: 240000004 cycles: 103018581 heartbeat IPC: 0.426713 cumulative IPC: 0.835855 (Simulation time: 3 hr 2 min 46 sec) 
Heartbeat CPU 0 instructions: 250000000 cycles: 115417434 heartbeat IPC: 0.806526 cumulative IPC: 0.82982 (Simulation time: 3 hr 20 min 0 sec) 
Heartbeat CPU 0 instructions: 260000001 cycles: 119141942 heartbeat IPC: 2.68492 cumulative IPC: 0.937814 (Simulation time: 3 hr 27 min 26 sec) 
Heartbeat CPU 0 instructions: 270000003 cycles: 124053492 heartbeat IPC: 2.03602 cumulative IPC: 1.01612 (Simulation time: 3 hr 35 min 38 sec) 
Heartbeat CPU 0 instructions: 280000001 cycles: 134992342 heartbeat IPC: 0.914173 cumulative IPC: 1.00215 (Simulation time: 3 hr 48 min 2 sec) 
Heartbeat CPU 0 instructions: 290000003 cycles: 145920857 heartbeat IPC: 0.915038 cumulative IPC: 0.991654 (Simulation time: 4 hr 0 min 26 sec) 
Heartbeat CPU 0 instructions: 300000002 cycles: 166007508 heartbeat IPC: 0.497844 cumulative IPC: 0.902168 (Simulation time: 4 hr 26 min 33 sec) 
Heartbeat CPU 0 instructions: 310000002 cycles: 185213505 heartbeat IPC: 0.520671 cumulative IPC: 0.845828 (Simulation time: 4 hr 51 min 42 sec) 
Heartbeat CPU 0 instructions: 320000003 cycles: 189145222 heartbeat IPC: 2.54342 cumulative IPC: 0.895644 (Simulation time: 4 hr 58 min 55 sec) 
Heartbeat CPU 0 instructions: 330000004 cycles: 193076802 heartbeat IPC: 2.54351 cumulative IPC: 0.942621 (Simulation time: 5 hr 6 min 9 sec) 
Heartbeat CPU 0 instructions: 340000002 cycles: 203382223 heartbeat IPC: 0.970363 cumulative IPC: 0.94455 (Simulation time: 5 hr 17 min 58 sec) 
Heartbeat CPU 0 instructions: 350000003 cycles: 215265385 heartbeat IPC: 0.841527 cumulative IPC: 0.936903 (Simulation time: 5 hr 29 min 52 sec) 
Heartbeat CPU 0 instructions: 360000004 cycles: 231148130 heartbeat IPC: 0.629615 cumulative IPC: 0.90917 (Simulation time: 5 hr 46 min 17 sec) 
