41 41 41
Available num physical pages: 35184372088576
WARNING: physical memory size is smaller than virtual memory size

*** ChampSim Multicore Out-of-Order Simulator ***

Warmup Instructions: 200000000
Simulation Instructions: 200000000
Number of CPUs: 1
Page size: 4096

Basic BTB sets: 1024 ways: 8 indirect buffer size: 4096 RAS size: 64
cpu0_L1D SMS_1_Offsets prefetcher
Off-chip DRAM Size: 4 GiB Channels: 1 Width: 64-bit Data Rate: 3200 MT/s
Heartbeat CPU 0 instructions: 10000003 cycles: 2500051 heartbeat IPC: 3.99992 cumulative IPC: 3.99992 (Simulation time: 0 hr 7 min 35 sec) 
Heartbeat CPU 0 instructions: 20000003 cycles: 5000051 heartbeat IPC: 4 cumulative IPC: 3.99996 (Simulation time: 0 hr 15 min 13 sec) 
Heartbeat CPU 0 instructions: 30000003 cycles: 7500051 heartbeat IPC: 4 cumulative IPC: 3.99998 (Simulation time: 0 hr 22 min 56 sec) 
Heartbeat CPU 0 instructions: 40000003 cycles: 10000051 heartbeat IPC: 4 cumulative IPC: 3.99998 (Simulation time: 0 hr 30 min 39 sec) 
Heartbeat CPU 0 instructions: 50000003 cycles: 12500051 heartbeat IPC: 4 cumulative IPC: 3.99999 (Simulation time: 0 hr 38 min 21 sec) 
Heartbeat CPU 0 instructions: 60000003 cycles: 15000051 heartbeat IPC: 4 cumulative IPC: 3.99999 (Simulation time: 0 hr 46 min 5 sec) 
Heartbeat CPU 0 instructions: 70000003 cycles: 17500051 heartbeat IPC: 4 cumulative IPC: 3.99999 (Simulation time: 0 hr 53 min 54 sec) 
Heartbeat CPU 0 instructions: 80000003 cycles: 20000051 heartbeat IPC: 4 cumulative IPC: 3.99999 (Simulation time: 1 hr 1 min 40 sec) 
Heartbeat CPU 0 instructions: 90000003 cycles: 22500051 heartbeat IPC: 4 cumulative IPC: 4 (Simulation time: 1 hr 9 min 28 sec) 
Heartbeat CPU 0 instructions: 100000003 cycles: 25000051 heartbeat IPC: 4 cumulative IPC: 4 (Simulation time: 1 hr 17 min 21 sec) 
Heartbeat CPU 0 instructions: 110000003 cycles: 27500051 heartbeat IPC: 4 cumulative IPC: 4 (Simulation time: 1 hr 25 min 11 sec) 
Heartbeat CPU 0 instructions: 120000003 cycles: 30000051 heartbeat IPC: 4 cumulative IPC: 4 (Simulation time: 1 hr 32 min 59 sec) 
Heartbeat CPU 0 instructions: 130000003 cycles: 32500051 heartbeat IPC: 4 cumulative IPC: 4 (Simulation time: 1 hr 40 min 48 sec) 
Heartbeat CPU 0 instructions: 140000003 cycles: 35000051 heartbeat IPC: 4 cumulative IPC: 4 (Simulation time: 1 hr 48 min 37 sec) 
Heartbeat CPU 0 instructions: 150000003 cycles: 37500051 heartbeat IPC: 4 cumulative IPC: 4 (Simulation time: 1 hr 56 min 23 sec) 
Heartbeat CPU 0 instructions: 160000003 cycles: 40000051 heartbeat IPC: 4 cumulative IPC: 4 (Simulation time: 2 hr 4 min 15 sec) 
Heartbeat CPU 0 instructions: 170000003 cycles: 42500051 heartbeat IPC: 4 cumulative IPC: 4 (Simulation time: 2 hr 12 min 3 sec) 
Heartbeat CPU 0 instructions: 180000003 cycles: 45000051 heartbeat IPC: 4 cumulative IPC: 4 (Simulation time: 2 hr 19 min 51 sec) 
Heartbeat CPU 0 instructions: 190000003 cycles: 47500051 heartbeat IPC: 4 cumulative IPC: 4 (Simulation time: 2 hr 27 min 33 sec) 
Heartbeat CPU 0 instructions: 200000003 cycles: 50000051 heartbeat IPC: 4 cumulative IPC: 4 (Simulation time: 2 hr 35 min 18 sec) 
Max paddr 214M
Warmup finished CPU 0 instructions: 200000003 cycles: 50000052 cumulative IPC: 4 (Simulation time: 2 hr 35 min 18 sec) 

Warmup complete CPU 0 instructions: 200000003 cycles: 50000052 (Simulation time: 2 hr 35 min 18 sec) 

Heartbeat CPU 0 instructions: 210000001 cycles: 56263429 heartbeat IPC: 1.59659 cumulative IPC: 1.59659 (Simulation time: 2 hr 48 min 5 sec) 
Heartbeat CPU 0 instructions: 220000000 cycles: 62571797 heartbeat IPC: 1.5852 cumulative IPC: 1.59087 (Simulation time: 3 hr 1 min 0 sec) 
Heartbeat CPU 0 instructions: 230000002 cycles: 68850208 heartbeat IPC: 1.59277 cumulative IPC: 1.5915 (Simulation time: 3 hr 13 min 53 sec) 
Heartbeat CPU 0 instructions: 240000002 cycles: 75119446 heartbeat IPC: 1.5951 cumulative IPC: 1.5924 (Simulation time: 3 hr 26 min 56 sec) 
Heartbeat CPU 0 instructions: 250000000 cycles: 81345048 heartbeat IPC: 1.60628 cumulative IPC: 1.59516 (Simulation time: 3 hr 39 min 55 sec) 
Heartbeat CPU 0 instructions: 260000004 cycles: 87592949 heartbeat IPC: 1.60054 cumulative IPC: 1.59605 (Simulation time: 3 hr 52 min 48 sec) 
Heartbeat CPU 0 instructions: 270000004 cycles: 93901041 heartbeat IPC: 1.58527 cumulative IPC: 1.5945 (Simulation time: 4 hr 5 min 50 sec) 
Heartbeat CPU 0 instructions: 280000004 cycles: 100130726 heartbeat IPC: 1.60522 cumulative IPC: 1.59583 (Simulation time: 4 hr 18 min 40 sec) 
Heartbeat CPU 0 instructions: 290000004 cycles: 106393547 heartbeat IPC: 1.59673 cumulative IPC: 1.59593 (Simulation time: 4 hr 31 min 20 sec) 
Heartbeat CPU 0 instructions: 300000002 cycles: 112622123 heartbeat IPC: 1.60551 cumulative IPC: 1.59689 (Simulation time: 4 hr 44 min 4 sec) 
Heartbeat CPU 0 instructions: 310000004 cycles: 118863015 heartbeat IPC: 1.60234 cumulative IPC: 1.59738 (Simulation time: 4 hr 56 min 58 sec) 
Heartbeat CPU 0 instructions: 320000001 cycles: 125110488 heartbeat IPC: 1.60065 cumulative IPC: 1.59765 (Simulation time: 5 hr 9 min 47 sec) 
Heartbeat CPU 0 instructions: 330000002 cycles: 131400067 heartbeat IPC: 1.58994 cumulative IPC: 1.59706 (Simulation time: 5 hr 22 min 20 sec) 
Heartbeat CPU 0 instructions: 340000002 cycles: 137730342 heartbeat IPC: 1.57972 cumulative IPC: 1.59581 (Simulation time: 5 hr 33 min 36 sec) 
Heartbeat CPU 0 instructions: 350000001 cycles: 143420417 heartbeat IPC: 1.75745 cumulative IPC: 1.60565 (Simulation time: 5 hr 42 min 0 sec) 
Heartbeat CPU 0 instructions: 360000004 cycles: 148625216 heartbeat IPC: 1.92131 cumulative IPC: 1.62231 (Simulation time: 5 hr 48 min 32 sec) 
Heartbeat CPU 0 instructions: 370000000 cycles: 156456984 heartbeat IPC: 1.27686 cumulative IPC: 1.59689 (Simulation time: 5 hr 59 min 1 sec) 
