41 41 41
Available num physical pages: 35184372088576
WARNING: physical memory size is smaller than virtual memory size

*** ChampSim Multicore Out-of-Order Simulator ***

Warmup Instructions: 200000000
Simulation Instructions: 200000000
Number of CPUs: 1
Page size: 4096

Basic BTB sets: 1024 ways: 8 indirect buffer size: 4096 RAS size: 64
cpu0_L1D SMS_1_Offsets prefetcher
Off-chip DRAM Size: 4 GiB Channels: 1 Width: 64-bit Data Rate: 3200 MT/s
Heartbeat CPU 0 instructions: 10000001 cycles: 3084691 heartbeat IPC: 3.24182 cumulative IPC: 3.24182 (Simulation time: 0 hr 4 min 27 sec) 
Heartbeat CPU 0 instructions: 20000003 cycles: 5587528 heartbeat IPC: 3.99547 cumulative IPC: 3.57941 (Simulation time: 0 hr 9 min 7 sec) 
Heartbeat CPU 0 instructions: 30000000 cycles: 8089649 heartbeat IPC: 3.99661 cumulative IPC: 3.70845 (Simulation time: 0 hr 13 min 59 sec) 
Heartbeat CPU 0 instructions: 40000003 cycles: 10591791 heartbeat IPC: 3.99658 cumulative IPC: 3.77651 (Simulation time: 0 hr 18 min 42 sec) 
Heartbeat CPU 0 instructions: 50000003 cycles: 13092503 heartbeat IPC: 3.99887 cumulative IPC: 3.81898 (Simulation time: 0 hr 23 min 43 sec) 
Heartbeat CPU 0 instructions: 60000001 cycles: 15593920 heartbeat IPC: 3.99774 cumulative IPC: 3.84766 (Simulation time: 0 hr 28 min 39 sec) 
Heartbeat CPU 0 instructions: 70000001 cycles: 18094630 heartbeat IPC: 3.99887 cumulative IPC: 3.86856 (Simulation time: 0 hr 33 min 36 sec) 
Heartbeat CPU 0 instructions: 80000001 cycles: 20595338 heartbeat IPC: 3.99887 cumulative IPC: 3.88438 (Simulation time: 0 hr 38 min 51 sec) 
Heartbeat CPU 0 instructions: 90000002 cycles: 23096047 heartbeat IPC: 3.99887 cumulative IPC: 3.89678 (Simulation time: 0 hr 43 min 48 sec) 
Heartbeat CPU 0 instructions: 100000002 cycles: 25596757 heartbeat IPC: 3.99887 cumulative IPC: 3.90675 (Simulation time: 0 hr 48 min 47 sec) 
Heartbeat CPU 0 instructions: 110000002 cycles: 28097464 heartbeat IPC: 3.99887 cumulative IPC: 3.91495 (Simulation time: 0 hr 53 min 55 sec) 
Heartbeat CPU 0 instructions: 120000002 cycles: 30598172 heartbeat IPC: 3.99887 cumulative IPC: 3.92181 (Simulation time: 0 hr 58 min 53 sec) 
Heartbeat CPU 0 instructions: 130000000 cycles: 33098881 heartbeat IPC: 3.99887 cumulative IPC: 3.92763 (Simulation time: 1 hr 3 min 47 sec) 
Heartbeat CPU 0 instructions: 140000000 cycles: 35681502 heartbeat IPC: 3.87204 cumulative IPC: 3.92361 (Simulation time: 1 hr 8 min 22 sec) 
Heartbeat CPU 0 instructions: 150000004 cycles: 38338103 heartbeat IPC: 3.76421 cumulative IPC: 3.91256 (Simulation time: 1 hr 12 min 40 sec) 
Heartbeat CPU 0 instructions: 160000004 cycles: 40997048 heartbeat IPC: 3.7609 cumulative IPC: 3.90273 (Simulation time: 1 hr 16 min 42 sec) 
Heartbeat CPU 0 instructions: 170000003 cycles: 43659687 heartbeat IPC: 3.75568 cumulative IPC: 3.89376 (Simulation time: 1 hr 20 min 43 sec) 
Heartbeat CPU 0 instructions: 180000004 cycles: 46323953 heartbeat IPC: 3.75338 cumulative IPC: 3.88568 (Simulation time: 1 hr 24 min 44 sec) 
Heartbeat CPU 0 instructions: 190000004 cycles: 48989577 heartbeat IPC: 3.75147 cumulative IPC: 3.87838 (Simulation time: 1 hr 28 min 52 sec) 
Heartbeat CPU 0 instructions: 200000004 cycles: 51655932 heartbeat IPC: 3.75044 cumulative IPC: 3.87178 (Simulation time: 1 hr 32 min 51 sec) 
Max paddr 105M
Warmup finished CPU 0 instructions: 200000004 cycles: 51655933 cumulative IPC: 3.87178 (Simulation time: 1 hr 32 min 51 sec) 

Warmup complete CPU 0 instructions: 200000004 cycles: 51655933 (Simulation time: 1 hr 32 min 51 sec) 

Heartbeat CPU 0 instructions: 210000003 cycles: 78879614 heartbeat IPC: 0.367328 cumulative IPC: 0.367328 (Simulation time: 1 hr 48 min 11 sec) 
Heartbeat CPU 0 instructions: 220000001 cycles: 106822347 heartbeat IPC: 0.357875 cumulative IPC: 0.36254 (Simulation time: 2 hr 3 min 32 sec) 
Heartbeat CPU 0 instructions: 230000001 cycles: 135410938 heartbeat IPC: 0.34979 cumulative IPC: 0.358188 (Simulation time: 2 hr 19 min 2 sec) 
Heartbeat CPU 0 instructions: 240000001 cycles: 164031718 heartbeat IPC: 0.349397 cumulative IPC: 0.355949 (Simulation time: 2 hr 34 min 8 sec) 
Heartbeat CPU 0 instructions: 250000004 cycles: 193056143 heartbeat IPC: 0.344538 cumulative IPC: 0.353607 (Simulation time: 2 hr 50 min 36 sec) 
Heartbeat CPU 0 instructions: 260000004 cycles: 222693712 heartbeat IPC: 0.33741 cumulative IPC: 0.3508 (Simulation time: 3 hr 6 min 52 sec) 
Heartbeat CPU 0 instructions: 270000001 cycles: 252664609 heartbeat IPC: 0.333657 cumulative IPC: 0.348244 (Simulation time: 3 hr 22 min 0 sec) 
Heartbeat CPU 0 instructions: 280000000 cycles: 282545775 heartbeat IPC: 0.334659 cumulative IPC: 0.346486 (Simulation time: 3 hr 35 min 11 sec) 
Heartbeat CPU 0 instructions: 290000000 cycles: 313314538 heartbeat IPC: 0.325005 cumulative IPC: 0.34396 (Simulation time: 3 hr 47 min 42 sec) 
