41 41 41
Available num physical pages: 35184372088576
WARNING: physical memory size is smaller than virtual memory size

*** ChampSim Multicore Out-of-Order Simulator ***

Warmup Instructions: 200000000
Simulation Instructions: 200000000
Number of CPUs: 1
Page size: 4096

Basic BTB sets: 1024 ways: 8 indirect buffer size: 4096 RAS size: 64
cpu0_L1D Gaze NEW NEW prefetcher
Pattern Table index_len: 6
Off-chip DRAM Size: 4 GiB Channels: 1 Width: 64-bit Data Rate: 3200 MT/s
Heartbeat CPU 0 instructions: 10000003 cycles: 2500051 heartbeat IPC: 3.99992 cumulative IPC: 3.99992 (Simulation time: 0 hr 7 min 34 sec) 
Heartbeat CPU 0 instructions: 20000003 cycles: 5000051 heartbeat IPC: 4 cumulative IPC: 3.99996 (Simulation time: 0 hr 15 min 28 sec) 
Heartbeat CPU 0 instructions: 30000003 cycles: 7500051 heartbeat IPC: 4 cumulative IPC: 3.99998 (Simulation time: 0 hr 23 min 24 sec) 
Heartbeat CPU 0 instructions: 40000003 cycles: 10000051 heartbeat IPC: 4 cumulative IPC: 3.99998 (Simulation time: 0 hr 31 min 21 sec) 
Heartbeat CPU 0 instructions: 50000003 cycles: 12500051 heartbeat IPC: 4 cumulative IPC: 3.99999 (Simulation time: 0 hr 39 min 15 sec) 
Heartbeat CPU 0 instructions: 60000003 cycles: 15000051 heartbeat IPC: 4 cumulative IPC: 3.99999 (Simulation time: 0 hr 47 min 11 sec) 
Heartbeat CPU 0 instructions: 70000003 cycles: 17500051 heartbeat IPC: 4 cumulative IPC: 3.99999 (Simulation time: 0 hr 55 min 10 sec) 
Heartbeat CPU 0 instructions: 80000003 cycles: 20000051 heartbeat IPC: 4 cumulative IPC: 3.99999 (Simulation time: 1 hr 3 min 6 sec) 
Heartbeat CPU 0 instructions: 90000003 cycles: 22500051 heartbeat IPC: 4 cumulative IPC: 4 (Simulation time: 1 hr 11 min 5 sec) 
Heartbeat CPU 0 instructions: 100000003 cycles: 25000051 heartbeat IPC: 4 cumulative IPC: 4 (Simulation time: 1 hr 19 min 6 sec) 
Heartbeat CPU 0 instructions: 110000003 cycles: 27500051 heartbeat IPC: 4 cumulative IPC: 4 (Simulation time: 1 hr 27 min 7 sec) 
Heartbeat CPU 0 instructions: 120000003 cycles: 30000051 heartbeat IPC: 4 cumulative IPC: 4 (Simulation time: 1 hr 35 min 9 sec) 
Heartbeat CPU 0 instructions: 130000003 cycles: 32500051 heartbeat IPC: 4 cumulative IPC: 4 (Simulation time: 1 hr 43 min 6 sec) 
Heartbeat CPU 0 instructions: 140000003 cycles: 35000051 heartbeat IPC: 4 cumulative IPC: 4 (Simulation time: 1 hr 51 min 3 sec) 
Heartbeat CPU 0 instructions: 150000003 cycles: 37500051 heartbeat IPC: 4 cumulative IPC: 4 (Simulation time: 1 hr 59 min 5 sec) 
Heartbeat CPU 0 instructions: 160000003 cycles: 40000051 heartbeat IPC: 4 cumulative IPC: 4 (Simulation time: 2 hr 7 min 6 sec) 
Heartbeat CPU 0 instructions: 170000003 cycles: 42500051 heartbeat IPC: 4 cumulative IPC: 4 (Simulation time: 2 hr 15 min 3 sec) 
Heartbeat CPU 0 instructions: 180000003 cycles: 45000051 heartbeat IPC: 4 cumulative IPC: 4 (Simulation time: 2 hr 22 min 53 sec) 
Heartbeat CPU 0 instructions: 190000003 cycles: 47500051 heartbeat IPC: 4 cumulative IPC: 4 (Simulation time: 2 hr 30 min 46 sec) 
Heartbeat CPU 0 instructions: 200000003 cycles: 50000051 heartbeat IPC: 4 cumulative IPC: 4 (Simulation time: 2 hr 38 min 32 sec) 
Max paddr 214M
Warmup finished CPU 0 instructions: 200000003 cycles: 50000052 cumulative IPC: 4 (Simulation time: 2 hr 38 min 32 sec) 

Warmup complete CPU 0 instructions: 200000003 cycles: 50000052 (Simulation time: 2 hr 38 min 32 sec) 

Heartbeat CPU 0 instructions: 210000001 cycles: 55678645 heartbeat IPC: 1.761 cumulative IPC: 1.761 (Simulation time: 2 hr 51 min 5 sec) 
Heartbeat CPU 0 instructions: 220000002 cycles: 61319895 heartbeat IPC: 1.77266 cumulative IPC: 1.76681 (Simulation time: 3 hr 3 min 38 sec) 
Heartbeat CPU 0 instructions: 230000004 cycles: 67009454 heartbeat IPC: 1.75761 cumulative IPC: 1.76374 (Simulation time: 3 hr 16 min 9 sec) 
Heartbeat CPU 0 instructions: 240000002 cycles: 72706738 heartbeat IPC: 1.75523 cumulative IPC: 1.7616 (Simulation time: 3 hr 28 min 40 sec) 
Heartbeat CPU 0 instructions: 250000000 cycles: 78344771 heartbeat IPC: 1.77367 cumulative IPC: 1.764 (Simulation time: 3 hr 41 min 12 sec) 
Heartbeat CPU 0 instructions: 260000004 cycles: 84015068 heartbeat IPC: 1.76358 cumulative IPC: 1.76393 (Simulation time: 3 hr 53 min 43 sec) 
Heartbeat CPU 0 instructions: 270000004 cycles: 89673319 heartbeat IPC: 1.76734 cumulative IPC: 1.76442 (Simulation time: 4 hr 6 min 17 sec) 
Heartbeat CPU 0 instructions: 280000001 cycles: 95332727 heartbeat IPC: 1.76697 cumulative IPC: 1.76474 (Simulation time: 4 hr 18 min 51 sec) 
Heartbeat CPU 0 instructions: 290000004 cycles: 100995871 heartbeat IPC: 1.76581 cumulative IPC: 1.76486 (Simulation time: 4 hr 31 min 30 sec) 
Heartbeat CPU 0 instructions: 300000003 cycles: 106648695 heartbeat IPC: 1.76903 cumulative IPC: 1.76527 (Simulation time: 4 hr 44 min 6 sec) 
Heartbeat CPU 0 instructions: 310000004 cycles: 112324683 heartbeat IPC: 1.76181 cumulative IPC: 1.76496 (Simulation time: 4 hr 56 min 35 sec) 
Heartbeat CPU 0 instructions: 320000001 cycles: 117996792 heartbeat IPC: 1.76302 cumulative IPC: 1.7648 (Simulation time: 5 hr 9 min 13 sec) 
Heartbeat CPU 0 instructions: 330000000 cycles: 123662492 heartbeat IPC: 1.76501 cumulative IPC: 1.76481 (Simulation time: 5 hr 21 min 30 sec) 
Heartbeat CPU 0 instructions: 340000002 cycles: 129313505 heartbeat IPC: 1.7696 cumulative IPC: 1.76515 (Simulation time: 5 hr 32 min 29 sec) 
Heartbeat CPU 0 instructions: 350000003 cycles: 134666829 heartbeat IPC: 1.868 cumulative IPC: 1.77166 (Simulation time: 5 hr 40 min 53 sec) 
Heartbeat CPU 0 instructions: 360000001 cycles: 139814551 heartbeat IPC: 1.94261 cumulative IPC: 1.78145 (Simulation time: 5 hr 47 min 43 sec) 
Heartbeat CPU 0 instructions: 370000001 cycles: 146530113 heartbeat IPC: 1.48908 cumulative IPC: 1.76111 (Simulation time: 5 hr 56 min 45 sec) 
Heartbeat CPU 0 instructions: 380000004 cycles: 153634039 heartbeat IPC: 1.40768 cumulative IPC: 1.73689 (Simulation time: 6 hr 7 min 47 sec) 
