41 41 41
Available num physical pages: 35184372088576
WARNING: physical memory size is smaller than virtual memory size

*** ChampSim Multicore Out-of-Order Simulator ***

Warmup Instructions: 200000000
Simulation Instructions: 200000000
Number of CPUs: 1
Page size: 4096

Basic BTB sets: 1024 ways: 8 indirect buffer size: 4096 RAS size: 64
cpu0_L1D Gaze NEW NEW prefetcher
Pattern Table index_len: 6
Off-chip DRAM Size: 4 GiB Channels: 1 Width: 64-bit Data Rate: 3200 MT/s
Heartbeat CPU 0 instructions: 10000003 cycles: 2501086 heartbeat IPC: 3.99827 cumulative IPC: 3.99827 (Simulation time: 0 hr 3 min 26 sec) 
Heartbeat CPU 0 instructions: 20000001 cycles: 5002488 heartbeat IPC: 3.99776 cumulative IPC: 3.99802 (Simulation time: 0 hr 7 min 48 sec) 
Heartbeat CPU 0 instructions: 30000000 cycles: 7504963 heartbeat IPC: 3.99605 cumulative IPC: 3.99736 (Simulation time: 0 hr 12 min 1 sec) 
Heartbeat CPU 0 instructions: 40000002 cycles: 10007605 heartbeat IPC: 3.99578 cumulative IPC: 3.99697 (Simulation time: 0 hr 16 min 24 sec) 
Heartbeat CPU 0 instructions: 50000002 cycles: 12510239 heartbeat IPC: 3.9958 cumulative IPC: 3.99673 (Simulation time: 0 hr 20 min 52 sec) 
Heartbeat CPU 0 instructions: 60000003 cycles: 15012566 heartbeat IPC: 3.99629 cumulative IPC: 3.99666 (Simulation time: 0 hr 25 min 1 sec) 
Heartbeat CPU 0 instructions: 70000003 cycles: 17514873 heartbeat IPC: 3.99632 cumulative IPC: 3.99661 (Simulation time: 0 hr 29 min 15 sec) 
Heartbeat CPU 0 instructions: 80000003 cycles: 20017421 heartbeat IPC: 3.99593 cumulative IPC: 3.99652 (Simulation time: 0 hr 33 min 48 sec) 
Heartbeat CPU 0 instructions: 90000001 cycles: 22519820 heartbeat IPC: 3.99617 cumulative IPC: 3.99648 (Simulation time: 0 hr 38 min 13 sec) 
Heartbeat CPU 0 instructions: 100000002 cycles: 25021292 heartbeat IPC: 3.99765 cumulative IPC: 3.9966 (Simulation time: 0 hr 42 min 33 sec) 
Heartbeat CPU 0 instructions: 110000000 cycles: 27523541 heartbeat IPC: 3.99641 cumulative IPC: 3.99658 (Simulation time: 0 hr 46 min 42 sec) 
Heartbeat CPU 0 instructions: 120000002 cycles: 30024910 heartbeat IPC: 3.99782 cumulative IPC: 3.99669 (Simulation time: 0 hr 51 min 7 sec) 
Heartbeat CPU 0 instructions: 130000001 cycles: 32527008 heartbeat IPC: 3.99665 cumulative IPC: 3.99668 (Simulation time: 0 hr 55 min 40 sec) 
Heartbeat CPU 0 instructions: 140000002 cycles: 35028704 heartbeat IPC: 3.99729 cumulative IPC: 3.99673 (Simulation time: 0 hr 59 min 54 sec) 
Heartbeat CPU 0 instructions: 150000001 cycles: 37529734 heartbeat IPC: 3.99836 cumulative IPC: 3.99684 (Simulation time: 1 hr 4 min 21 sec) 
Heartbeat CPU 0 instructions: 160000002 cycles: 40030968 heartbeat IPC: 3.99803 cumulative IPC: 3.99691 (Simulation time: 1 hr 8 min 56 sec) 
Heartbeat CPU 0 instructions: 170000002 cycles: 42532621 heartbeat IPC: 3.99736 cumulative IPC: 3.99694 (Simulation time: 1 hr 13 min 27 sec) 
Heartbeat CPU 0 instructions: 180000001 cycles: 45034576 heartbeat IPC: 3.99688 cumulative IPC: 3.99693 (Simulation time: 1 hr 17 min 46 sec) 
Heartbeat CPU 0 instructions: 190000002 cycles: 47535949 heartbeat IPC: 3.99781 cumulative IPC: 3.99698 (Simulation time: 1 hr 22 min 2 sec) 
Heartbeat CPU 0 instructions: 200000000 cycles: 50038535 heartbeat IPC: 3.99587 cumulative IPC: 3.99692 (Simulation time: 1 hr 26 min 23 sec) 
Max paddr 143M
Warmup finished CPU 0 instructions: 200000000 cycles: 50038536 cumulative IPC: 3.99692 (Simulation time: 1 hr 26 min 23 sec) 

Warmup complete CPU 0 instructions: 200000000 cycles: 50038536 (Simulation time: 1 hr 26 min 23 sec) 

Heartbeat CPU 0 instructions: 210000000 cycles: 64040149 heartbeat IPC: 0.714204 cumulative IPC: 0.714204 (Simulation time: 1 hr 35 min 42 sec) 
Heartbeat CPU 0 instructions: 220000003 cycles: 78473556 heartbeat IPC: 0.692838 cumulative IPC: 0.703359 (Simulation time: 1 hr 45 min 32 sec) 
Heartbeat CPU 0 instructions: 230000000 cycles: 92425564 heartbeat IPC: 0.716743 cumulative IPC: 0.707764 (Simulation time: 1 hr 55 min 7 sec) 
Heartbeat CPU 0 instructions: 240000000 cycles: 106283483 heartbeat IPC: 0.72161 cumulative IPC: 0.711175 (Simulation time: 2 hr 4 min 39 sec) 
Heartbeat CPU 0 instructions: 250000004 cycles: 120156392 heartbeat IPC: 0.72083 cumulative IPC: 0.713086 (Simulation time: 2 hr 14 min 9 sec) 
Heartbeat CPU 0 instructions: 260000001 cycles: 134187680 heartbeat IPC: 0.712693 cumulative IPC: 0.71302 (Simulation time: 2 hr 24 min 16 sec) 
Heartbeat CPU 0 instructions: 270000001 cycles: 148407177 heartbeat IPC: 0.70326 cumulative IPC: 0.711609 (Simulation time: 2 hr 34 min 3 sec) 
Heartbeat CPU 0 instructions: 280000002 cycles: 162221476 heartbeat IPC: 0.723888 cumulative IPC: 0.713121 (Simulation time: 2 hr 44 min 3 sec) 
Heartbeat CPU 0 instructions: 290000000 cycles: 176158768 heartbeat IPC: 0.7175 cumulative IPC: 0.713605 (Simulation time: 2 hr 54 min 31 sec) 
Heartbeat CPU 0 instructions: 300000002 cycles: 190467527 heartbeat IPC: 0.698873 cumulative IPC: 0.712104 (Simulation time: 3 hr 4 min 14 sec) 
Heartbeat CPU 0 instructions: 310000003 cycles: 204413173 heartbeat IPC: 0.71707 cumulative IPC: 0.712553 (Simulation time: 3 hr 13 min 36 sec) 
Heartbeat CPU 0 instructions: 320000004 cycles: 218657827 heartbeat IPC: 0.702018 cumulative IPC: 0.711663 (Simulation time: 3 hr 23 min 10 sec) 
Heartbeat CPU 0 instructions: 330000001 cycles: 233095055 heartbeat IPC: 0.692654 cumulative IPC: 0.710164 (Simulation time: 3 hr 31 min 28 sec) 
Heartbeat CPU 0 instructions: 340000002 cycles: 247705459 heartbeat IPC: 0.684444 cumulative IPC: 0.708263 (Simulation time: 3 hr 39 min 0 sec) 
Heartbeat CPU 0 instructions: 350000003 cycles: 261969004 heartbeat IPC: 0.701089 cumulative IPC: 0.70778 (Simulation time: 3 hr 46 min 50 sec) 
