41 41 41
Available num physical pages: 35184372088576
WARNING: physical memory size is smaller than virtual memory size

*** ChampSim Multicore Out-of-Order Simulator ***

Warmup Instructions: 200000000
Simulation Instructions: 200000000
Number of CPUs: 1
Page size: 4096

Basic BTB sets: 1024 ways: 8 indirect buffer size: 4096 RAS size: 64
cpu0_L1D Gaze NEW NEW prefetcher
Pattern Table index_len: 6
Off-chip DRAM Size: 4 GiB Channels: 1 Width: 64-bit Data Rate: 3200 MT/s
Heartbeat CPU 0 instructions: 10000003 cycles: 2500077 heartbeat IPC: 3.99988 cumulative IPC: 3.99988 (Simulation time: 0 hr 3 min 28 sec) 
Heartbeat CPU 0 instructions: 20000003 cycles: 5000077 heartbeat IPC: 4 cumulative IPC: 3.99994 (Simulation time: 0 hr 7 min 4 sec) 
Heartbeat CPU 0 instructions: 30000003 cycles: 7500077 heartbeat IPC: 4 cumulative IPC: 3.99996 (Simulation time: 0 hr 11 min 11 sec) 
Heartbeat CPU 0 instructions: 40000003 cycles: 10000077 heartbeat IPC: 4 cumulative IPC: 3.99997 (Simulation time: 0 hr 15 min 11 sec) 
Heartbeat CPU 0 instructions: 50000003 cycles: 12500077 heartbeat IPC: 4 cumulative IPC: 3.99998 (Simulation time: 0 hr 19 min 21 sec) 
Heartbeat CPU 0 instructions: 60000003 cycles: 15000077 heartbeat IPC: 4 cumulative IPC: 3.99998 (Simulation time: 0 hr 23 min 34 sec) 
Heartbeat CPU 0 instructions: 70000003 cycles: 17500077 heartbeat IPC: 4 cumulative IPC: 3.99999 (Simulation time: 0 hr 27 min 38 sec) 
Heartbeat CPU 0 instructions: 80000003 cycles: 20000077 heartbeat IPC: 4 cumulative IPC: 3.99999 (Simulation time: 0 hr 31 min 48 sec) 
Heartbeat CPU 0 instructions: 90000003 cycles: 22500077 heartbeat IPC: 4 cumulative IPC: 3.99999 (Simulation time: 0 hr 35 min 52 sec) 
Heartbeat CPU 0 instructions: 100000003 cycles: 25000077 heartbeat IPC: 4 cumulative IPC: 3.99999 (Simulation time: 0 hr 39 min 48 sec) 
Heartbeat CPU 0 instructions: 110000003 cycles: 27500077 heartbeat IPC: 4 cumulative IPC: 3.99999 (Simulation time: 0 hr 43 min 51 sec) 
Heartbeat CPU 0 instructions: 120000003 cycles: 30000077 heartbeat IPC: 4 cumulative IPC: 3.99999 (Simulation time: 0 hr 48 min 17 sec) 
Heartbeat CPU 0 instructions: 130000003 cycles: 32500077 heartbeat IPC: 4 cumulative IPC: 4 (Simulation time: 0 hr 52 min 28 sec) 
Heartbeat CPU 0 instructions: 140000003 cycles: 35000077 heartbeat IPC: 4 cumulative IPC: 4 (Simulation time: 0 hr 56 min 37 sec) 
Heartbeat CPU 0 instructions: 150000003 cycles: 37500077 heartbeat IPC: 4 cumulative IPC: 4 (Simulation time: 1 hr 0 min 41 sec) 
Heartbeat CPU 0 instructions: 160000003 cycles: 40000077 heartbeat IPC: 4 cumulative IPC: 4 (Simulation time: 1 hr 4 min 58 sec) 
Heartbeat CPU 0 instructions: 170000003 cycles: 42500077 heartbeat IPC: 4 cumulative IPC: 4 (Simulation time: 1 hr 8 min 27 sec) 
Heartbeat CPU 0 instructions: 180000003 cycles: 45000077 heartbeat IPC: 4 cumulative IPC: 4 (Simulation time: 1 hr 12 min 37 sec) 
Heartbeat CPU 0 instructions: 190000003 cycles: 47500077 heartbeat IPC: 4 cumulative IPC: 4 (Simulation time: 1 hr 16 min 42 sec) 
Heartbeat CPU 0 instructions: 200000003 cycles: 50000077 heartbeat IPC: 4 cumulative IPC: 4 (Simulation time: 1 hr 20 min 48 sec) 
Max paddr 66M
Warmup finished CPU 0 instructions: 200000003 cycles: 50000078 cumulative IPC: 4 (Simulation time: 1 hr 20 min 48 sec) 

Warmup complete CPU 0 instructions: 200000003 cycles: 50000078 (Simulation time: 1 hr 20 min 48 sec) 

Heartbeat CPU 0 instructions: 210000001 cycles: 83611435 heartbeat IPC: 0.297519 cumulative IPC: 0.297519 (Simulation time: 1 hr 33 min 2 sec) 
Heartbeat CPU 0 instructions: 220000001 cycles: 117672217 heartbeat IPC: 0.293593 cumulative IPC: 0.295543 (Simulation time: 1 hr 45 min 8 sec) 
Heartbeat CPU 0 instructions: 230000001 cycles: 151610007 heartbeat IPC: 0.294657 cumulative IPC: 0.295247 (Simulation time: 1 hr 57 min 23 sec) 
Heartbeat CPU 0 instructions: 240000000 cycles: 185638980 heartbeat IPC: 0.293868 cumulative IPC: 0.294901 (Simulation time: 2 hr 9 min 37 sec) 
Heartbeat CPU 0 instructions: 250000004 cycles: 221085277 heartbeat IPC: 0.282118 cumulative IPC: 0.292253 (Simulation time: 2 hr 22 min 24 sec) 
Heartbeat CPU 0 instructions: 260000000 cycles: 256072559 heartbeat IPC: 0.285819 cumulative IPC: 0.29116 (Simulation time: 2 hr 34 min 22 sec) 
Heartbeat CPU 0 instructions: 270000002 cycles: 290728426 heartbeat IPC: 0.288552 cumulative IPC: 0.290785 (Simulation time: 2 hr 47 min 19 sec) 
Heartbeat CPU 0 instructions: 280000001 cycles: 324453874 heartbeat IPC: 0.296512 cumulative IPC: 0.291489 (Simulation time: 3 hr 0 min 5 sec) 
Heartbeat CPU 0 instructions: 290000003 cycles: 356881754 heartbeat IPC: 0.308377 cumulative IPC: 0.293273 (Simulation time: 3 hr 11 min 49 sec) 
Heartbeat CPU 0 instructions: 300000001 cycles: 390968429 heartbeat IPC: 0.29337 cumulative IPC: 0.293283 (Simulation time: 3 hr 22 min 58 sec) 
Heartbeat CPU 0 instructions: 310000000 cycles: 424691964 heartbeat IPC: 0.296529 cumulative IPC: 0.293575 (Simulation time: 3 hr 33 min 11 sec) 
Heartbeat CPU 0 instructions: 320000001 cycles: 458842817 heartbeat IPC: 0.292819 cumulative IPC: 0.293512 (Simulation time: 3 hr 42 min 53 sec) 
Heartbeat CPU 0 instructions: 330000001 cycles: 493504842 heartbeat IPC: 0.288501 cumulative IPC: 0.29312 (Simulation time: 3 hr 51 min 22 sec) 
