41 41 41
Available num physical pages: 35184372088576
WARNING: physical memory size is smaller than virtual memory size

*** ChampSim Multicore Out-of-Order Simulator ***

Warmup Instructions: 200000000
Simulation Instructions: 200000000
Number of CPUs: 1
Page size: 4096

Basic BTB sets: 1024 ways: 8 indirect buffer size: 4096 RAS size: 64
cpu0_L1D Gaze NEW NEW prefetcher
Pattern Table index_len: 6
Off-chip DRAM Size: 4 GiB Channels: 1 Width: 64-bit Data Rate: 3200 MT/s
Heartbeat CPU 0 instructions: 10000003 cycles: 2500051 heartbeat IPC: 3.99992 cumulative IPC: 3.99992 (Simulation time: 0 hr 7 min 59 sec) 
Heartbeat CPU 0 instructions: 20000003 cycles: 5000051 heartbeat IPC: 4 cumulative IPC: 3.99996 (Simulation time: 0 hr 15 min 52 sec) 
Heartbeat CPU 0 instructions: 30000003 cycles: 7500051 heartbeat IPC: 4 cumulative IPC: 3.99998 (Simulation time: 0 hr 23 min 42 sec) 
Heartbeat CPU 0 instructions: 40000003 cycles: 10000051 heartbeat IPC: 4 cumulative IPC: 3.99998 (Simulation time: 0 hr 31 min 38 sec) 
Heartbeat CPU 0 instructions: 50000003 cycles: 12500051 heartbeat IPC: 4 cumulative IPC: 3.99999 (Simulation time: 0 hr 39 min 30 sec) 
Heartbeat CPU 0 instructions: 60000003 cycles: 15000051 heartbeat IPC: 4 cumulative IPC: 3.99999 (Simulation time: 0 hr 47 min 28 sec) 
Heartbeat CPU 0 instructions: 70000003 cycles: 17500051 heartbeat IPC: 4 cumulative IPC: 3.99999 (Simulation time: 0 hr 55 min 25 sec) 
Heartbeat CPU 0 instructions: 80000003 cycles: 20000051 heartbeat IPC: 4 cumulative IPC: 3.99999 (Simulation time: 1 hr 3 min 24 sec) 
Heartbeat CPU 0 instructions: 90000003 cycles: 22500051 heartbeat IPC: 4 cumulative IPC: 4 (Simulation time: 1 hr 11 min 21 sec) 
Heartbeat CPU 0 instructions: 100000003 cycles: 25000051 heartbeat IPC: 4 cumulative IPC: 4 (Simulation time: 1 hr 19 min 18 sec) 
Heartbeat CPU 0 instructions: 110000003 cycles: 27500051 heartbeat IPC: 4 cumulative IPC: 4 (Simulation time: 1 hr 27 min 13 sec) 
Heartbeat CPU 0 instructions: 120000003 cycles: 30000051 heartbeat IPC: 4 cumulative IPC: 4 (Simulation time: 1 hr 35 min 9 sec) 
Heartbeat CPU 0 instructions: 130000003 cycles: 32500051 heartbeat IPC: 4 cumulative IPC: 4 (Simulation time: 1 hr 43 min 9 sec) 
Heartbeat CPU 0 instructions: 140000003 cycles: 35000051 heartbeat IPC: 4 cumulative IPC: 4 (Simulation time: 1 hr 51 min 7 sec) 
Heartbeat CPU 0 instructions: 150000003 cycles: 37500051 heartbeat IPC: 4 cumulative IPC: 4 (Simulation time: 1 hr 59 min 6 sec) 
Heartbeat CPU 0 instructions: 160000003 cycles: 40000051 heartbeat IPC: 4 cumulative IPC: 4 (Simulation time: 2 hr 7 min 1 sec) 
Heartbeat CPU 0 instructions: 170000003 cycles: 42500051 heartbeat IPC: 4 cumulative IPC: 4 (Simulation time: 2 hr 14 min 53 sec) 
Heartbeat CPU 0 instructions: 180000003 cycles: 45000051 heartbeat IPC: 4 cumulative IPC: 4 (Simulation time: 2 hr 22 min 46 sec) 
Heartbeat CPU 0 instructions: 190000003 cycles: 47500051 heartbeat IPC: 4 cumulative IPC: 4 (Simulation time: 2 hr 30 min 33 sec) 
Heartbeat CPU 0 instructions: 200000003 cycles: 50000051 heartbeat IPC: 4 cumulative IPC: 4 (Simulation time: 2 hr 38 min 21 sec) 
Max paddr 214M
Warmup finished CPU 0 instructions: 200000003 cycles: 50000052 cumulative IPC: 4 (Simulation time: 2 hr 38 min 21 sec) 

Warmup complete CPU 0 instructions: 200000003 cycles: 50000052 (Simulation time: 2 hr 38 min 21 sec) 

Heartbeat CPU 0 instructions: 210000003 cycles: 55716035 heartbeat IPC: 1.74949 cumulative IPC: 1.74949 (Simulation time: 2 hr 50 min 45 sec) 
Heartbeat CPU 0 instructions: 220000002 cycles: 61432158 heartbeat IPC: 1.74944 cumulative IPC: 1.74946 (Simulation time: 3 hr 3 min 3 sec) 
Heartbeat CPU 0 instructions: 230000001 cycles: 67136604 heartbeat IPC: 1.75302 cumulative IPC: 1.75065 (Simulation time: 3 hr 15 min 28 sec) 
Heartbeat CPU 0 instructions: 240000002 cycles: 72854804 heartbeat IPC: 1.74881 cumulative IPC: 1.75019 (Simulation time: 3 hr 27 min 54 sec) 
Heartbeat CPU 0 instructions: 250000000 cycles: 78514419 heartbeat IPC: 1.76691 cumulative IPC: 1.75351 (Simulation time: 3 hr 40 min 20 sec) 
Heartbeat CPU 0 instructions: 260000003 cycles: 84236001 heartbeat IPC: 1.74777 cumulative IPC: 1.75255 (Simulation time: 3 hr 52 min 41 sec) 
Heartbeat CPU 0 instructions: 270000004 cycles: 89913476 heartbeat IPC: 1.76135 cumulative IPC: 1.7538 (Simulation time: 4 hr 5 min 12 sec) 
Heartbeat CPU 0 instructions: 280000004 cycles: 95622136 heartbeat IPC: 1.75173 cumulative IPC: 1.75354 (Simulation time: 4 hr 17 min 36 sec) 
Heartbeat CPU 0 instructions: 290000004 cycles: 101298511 heartbeat IPC: 1.76169 cumulative IPC: 1.75444 (Simulation time: 4 hr 29 min 57 sec) 
Heartbeat CPU 0 instructions: 300000001 cycles: 106990042 heartbeat IPC: 1.757 cumulative IPC: 1.7547 (Simulation time: 4 hr 42 min 16 sec) 
Heartbeat CPU 0 instructions: 310000004 cycles: 112698456 heartbeat IPC: 1.75181 cumulative IPC: 1.75444 (Simulation time: 4 hr 54 min 37 sec) 
Heartbeat CPU 0 instructions: 320000004 cycles: 118374318 heartbeat IPC: 1.76185 cumulative IPC: 1.75505 (Simulation time: 5 hr 7 min 2 sec) 
Heartbeat CPU 0 instructions: 330000001 cycles: 124082124 heartbeat IPC: 1.75199 cumulative IPC: 1.75482 (Simulation time: 5 hr 19 min 15 sec) 
Heartbeat CPU 0 instructions: 340000002 cycles: 129753218 heartbeat IPC: 1.76333 cumulative IPC: 1.75542 (Simulation time: 5 hr 30 min 19 sec) 
Heartbeat CPU 0 instructions: 350000001 cycles: 135073614 heartbeat IPC: 1.87956 cumulative IPC: 1.76318 (Simulation time: 5 hr 38 min 33 sec) 
Heartbeat CPU 0 instructions: 360000004 cycles: 140150618 heartbeat IPC: 1.96967 cumulative IPC: 1.77481 (Simulation time: 5 hr 45 min 17 sec) 
Heartbeat CPU 0 instructions: 370000001 cycles: 146858393 heartbeat IPC: 1.49081 cumulative IPC: 1.75515 (Simulation time: 5 hr 53 min 42 sec) 
Heartbeat CPU 0 instructions: 380000004 cycles: 154046729 heartbeat IPC: 1.39115 cumulative IPC: 1.73 (Simulation time: 6 hr 5 min 8 sec) 
