41 41 41
Available num physical pages: 35184372088576
WARNING: physical memory size is smaller than virtual memory size

*** ChampSim Multicore Out-of-Order Simulator ***

Warmup Instructions: 200000000
Simulation Instructions: 200000000
Number of CPUs: 1
Page size: 4096

Basic BTB sets: 1024 ways: 8 indirect buffer size: 4096 RAS size: 64
cpu0_L1D Gaze NEW NEW prefetcher
Pattern Table index_len: 6
Off-chip DRAM Size: 4 GiB Channels: 1 Width: 64-bit Data Rate: 3200 MT/s
Heartbeat CPU 0 instructions: 10000003 cycles: 2500077 heartbeat IPC: 3.99988 cumulative IPC: 3.99988 (Simulation time: 0 hr 3 min 12 sec) 
Heartbeat CPU 0 instructions: 20000003 cycles: 5000077 heartbeat IPC: 4 cumulative IPC: 3.99994 (Simulation time: 0 hr 7 min 12 sec) 
Heartbeat CPU 0 instructions: 30000003 cycles: 7500077 heartbeat IPC: 4 cumulative IPC: 3.99996 (Simulation time: 0 hr 11 min 8 sec) 
Heartbeat CPU 0 instructions: 40000003 cycles: 10000077 heartbeat IPC: 4 cumulative IPC: 3.99997 (Simulation time: 0 hr 14 min 43 sec) 
Heartbeat CPU 0 instructions: 50000003 cycles: 12500077 heartbeat IPC: 4 cumulative IPC: 3.99998 (Simulation time: 0 hr 18 min 38 sec) 
Heartbeat CPU 0 instructions: 60000003 cycles: 15000077 heartbeat IPC: 4 cumulative IPC: 3.99998 (Simulation time: 0 hr 22 min 41 sec) 
Heartbeat CPU 0 instructions: 70000003 cycles: 17500077 heartbeat IPC: 4 cumulative IPC: 3.99999 (Simulation time: 0 hr 26 min 41 sec) 
Heartbeat CPU 0 instructions: 80000003 cycles: 20000077 heartbeat IPC: 4 cumulative IPC: 3.99999 (Simulation time: 0 hr 30 min 41 sec) 
Heartbeat CPU 0 instructions: 90000003 cycles: 22500077 heartbeat IPC: 4 cumulative IPC: 3.99999 (Simulation time: 0 hr 34 min 53 sec) 
Heartbeat CPU 0 instructions: 100000003 cycles: 25000077 heartbeat IPC: 4 cumulative IPC: 3.99999 (Simulation time: 0 hr 38 min 56 sec) 
Heartbeat CPU 0 instructions: 110000003 cycles: 27500077 heartbeat IPC: 4 cumulative IPC: 3.99999 (Simulation time: 0 hr 42 min 55 sec) 
Heartbeat CPU 0 instructions: 120000003 cycles: 30000077 heartbeat IPC: 4 cumulative IPC: 3.99999 (Simulation time: 0 hr 47 min 4 sec) 
Heartbeat CPU 0 instructions: 130000003 cycles: 32500077 heartbeat IPC: 4 cumulative IPC: 4 (Simulation time: 0 hr 51 min 9 sec) 
Heartbeat CPU 0 instructions: 140000003 cycles: 35000077 heartbeat IPC: 4 cumulative IPC: 4 (Simulation time: 0 hr 55 min 19 sec) 
Heartbeat CPU 0 instructions: 150000003 cycles: 37500077 heartbeat IPC: 4 cumulative IPC: 4 (Simulation time: 0 hr 59 min 32 sec) 
Heartbeat CPU 0 instructions: 160000003 cycles: 40000077 heartbeat IPC: 4 cumulative IPC: 4 (Simulation time: 1 hr 3 min 36 sec) 
Heartbeat CPU 0 instructions: 170000003 cycles: 42500077 heartbeat IPC: 4 cumulative IPC: 4 (Simulation time: 1 hr 7 min 37 sec) 
Heartbeat CPU 0 instructions: 180000003 cycles: 45000077 heartbeat IPC: 4 cumulative IPC: 4 (Simulation time: 1 hr 11 min 54 sec) 
Heartbeat CPU 0 instructions: 190000003 cycles: 47500077 heartbeat IPC: 4 cumulative IPC: 4 (Simulation time: 1 hr 16 min 0 sec) 
Heartbeat CPU 0 instructions: 200000003 cycles: 50000077 heartbeat IPC: 4 cumulative IPC: 4 (Simulation time: 1 hr 20 min 2 sec) 
Max paddr 66M
Warmup finished CPU 0 instructions: 200000003 cycles: 50000078 cumulative IPC: 4 (Simulation time: 1 hr 20 min 2 sec) 

Warmup complete CPU 0 instructions: 200000003 cycles: 50000078 (Simulation time: 1 hr 20 min 2 sec) 

Heartbeat CPU 0 instructions: 210000001 cycles: 83674028 heartbeat IPC: 0.296966 cumulative IPC: 0.296966 (Simulation time: 1 hr 32 min 17 sec) 
Heartbeat CPU 0 instructions: 220000001 cycles: 117809372 heartbeat IPC: 0.292952 cumulative IPC: 0.294945 (Simulation time: 1 hr 44 min 11 sec) 
Heartbeat CPU 0 instructions: 230000001 cycles: 151816995 heartbeat IPC: 0.294052 cumulative IPC: 0.294647 (Simulation time: 1 hr 56 min 28 sec) 
Heartbeat CPU 0 instructions: 240000000 cycles: 186045640 heartbeat IPC: 0.292153 cumulative IPC: 0.29402 (Simulation time: 2 hr 8 min 29 sec) 
Heartbeat CPU 0 instructions: 250000004 cycles: 221552957 heartbeat IPC: 0.281633 cumulative IPC: 0.291456 (Simulation time: 2 hr 20 min 57 sec) 
Heartbeat CPU 0 instructions: 260000000 cycles: 256611118 heartbeat IPC: 0.285241 cumulative IPC: 0.290401 (Simulation time: 2 hr 34 min 14 sec) 
Heartbeat CPU 0 instructions: 270000002 cycles: 291297686 heartbeat IPC: 0.288297 cumulative IPC: 0.290099 (Simulation time: 2 hr 46 min 36 sec) 
Heartbeat CPU 0 instructions: 280000001 cycles: 325081734 heartbeat IPC: 0.295998 cumulative IPC: 0.290823 (Simulation time: 2 hr 58 min 51 sec) 
Heartbeat CPU 0 instructions: 290000003 cycles: 357565094 heartbeat IPC: 0.30785 cumulative IPC: 0.292622 (Simulation time: 3 hr 10 min 29 sec) 
Heartbeat CPU 0 instructions: 300000001 cycles: 391721139 heartbeat IPC: 0.292774 cumulative IPC: 0.292637 (Simulation time: 3 hr 21 min 4 sec) 
Heartbeat CPU 0 instructions: 310000000 cycles: 425566744 heartbeat IPC: 0.29546 cumulative IPC: 0.292891 (Simulation time: 3 hr 31 min 28 sec) 
Heartbeat CPU 0 instructions: 320000001 cycles: 459779247 heartbeat IPC: 0.292291 cumulative IPC: 0.292841 (Simulation time: 3 hr 41 min 20 sec) 
Heartbeat CPU 0 instructions: 330000001 cycles: 494478178 heartbeat IPC: 0.288194 cumulative IPC: 0.292478 (Simulation time: 3 hr 49 min 36 sec) 
