41 41 41
Available num physical pages: 35184372088576
WARNING: physical memory size is smaller than virtual memory size

*** ChampSim Multicore Out-of-Order Simulator ***

Warmup Instructions: 200000000
Simulation Instructions: 200000000
Number of CPUs: 1
Page size: 4096

Basic BTB sets: 1024 ways: 8 indirect buffer size: 4096 RAS size: 64
cpu0_L1D Gaze NEW NEW prefetcher
Pattern Table index_len: 6
Off-chip DRAM Size: 4 GiB Channels: 1 Width: 64-bit Data Rate: 3200 MT/s
Heartbeat CPU 0 instructions: 10000003 cycles: 2501086 heartbeat IPC: 3.99827 cumulative IPC: 3.99827 (Simulation time: 0 hr 3 min 38 sec) 
Heartbeat CPU 0 instructions: 20000001 cycles: 5002488 heartbeat IPC: 3.99776 cumulative IPC: 3.99802 (Simulation time: 0 hr 8 min 8 sec) 
Heartbeat CPU 0 instructions: 30000000 cycles: 7504963 heartbeat IPC: 3.99605 cumulative IPC: 3.99736 (Simulation time: 0 hr 12 min 18 sec) 
Heartbeat CPU 0 instructions: 40000002 cycles: 10007605 heartbeat IPC: 3.99578 cumulative IPC: 3.99697 (Simulation time: 0 hr 16 min 33 sec) 
Heartbeat CPU 0 instructions: 50000000 cycles: 12510228 heartbeat IPC: 3.99581 cumulative IPC: 3.99673 (Simulation time: 0 hr 21 min 2 sec) 
Heartbeat CPU 0 instructions: 60000002 cycles: 15012565 heartbeat IPC: 3.99627 cumulative IPC: 3.99666 (Simulation time: 0 hr 25 min 28 sec) 
Heartbeat CPU 0 instructions: 70000003 cycles: 17514875 heartbeat IPC: 3.99631 cumulative IPC: 3.99661 (Simulation time: 0 hr 29 min 27 sec) 
Heartbeat CPU 0 instructions: 80000000 cycles: 20017410 heartbeat IPC: 3.99595 cumulative IPC: 3.99653 (Simulation time: 0 hr 33 min 52 sec) 
Heartbeat CPU 0 instructions: 90000002 cycles: 22519811 heartbeat IPC: 3.99617 cumulative IPC: 3.99649 (Simulation time: 0 hr 38 min 12 sec) 
Heartbeat CPU 0 instructions: 100000000 cycles: 25021284 heartbeat IPC: 3.99765 cumulative IPC: 3.9966 (Simulation time: 0 hr 42 min 32 sec) 
Heartbeat CPU 0 instructions: 110000001 cycles: 27523528 heartbeat IPC: 3.99642 cumulative IPC: 3.99659 (Simulation time: 0 hr 46 min 37 sec) 
Heartbeat CPU 0 instructions: 120000003 cycles: 30024897 heartbeat IPC: 3.99782 cumulative IPC: 3.99669 (Simulation time: 0 hr 50 min 38 sec) 
Heartbeat CPU 0 instructions: 130000001 cycles: 32526995 heartbeat IPC: 3.99665 cumulative IPC: 3.99669 (Simulation time: 0 hr 55 min 2 sec) 
Heartbeat CPU 0 instructions: 140000000 cycles: 35028688 heartbeat IPC: 3.9973 cumulative IPC: 3.99673 (Simulation time: 0 hr 59 min 38 sec) 
Heartbeat CPU 0 instructions: 150000002 cycles: 37529716 heartbeat IPC: 3.99836 cumulative IPC: 3.99684 (Simulation time: 1 hr 4 min 14 sec) 
Heartbeat CPU 0 instructions: 160000000 cycles: 40030946 heartbeat IPC: 3.99804 cumulative IPC: 3.99691 (Simulation time: 1 hr 8 min 45 sec) 
Heartbeat CPU 0 instructions: 170000000 cycles: 42532595 heartbeat IPC: 3.99737 cumulative IPC: 3.99694 (Simulation time: 1 hr 12 min 33 sec) 
Heartbeat CPU 0 instructions: 180000002 cycles: 45034550 heartbeat IPC: 3.99688 cumulative IPC: 3.99694 (Simulation time: 1 hr 16 min 30 sec) 
Heartbeat CPU 0 instructions: 190000000 cycles: 47535921 heartbeat IPC: 3.99781 cumulative IPC: 3.99698 (Simulation time: 1 hr 20 min 33 sec) 
Heartbeat CPU 0 instructions: 200000001 cycles: 50038510 heartbeat IPC: 3.99587 cumulative IPC: 3.99693 (Simulation time: 1 hr 24 min 43 sec) 
Max paddr 143M
Warmup finished CPU 0 instructions: 200000001 cycles: 50038511 cumulative IPC: 3.99693 (Simulation time: 1 hr 24 min 43 sec) 

Warmup complete CPU 0 instructions: 200000001 cycles: 50038511 (Simulation time: 1 hr 24 min 43 sec) 

Heartbeat CPU 0 instructions: 210000000 cycles: 64015072 heartbeat IPC: 0.715484 cumulative IPC: 0.715484 (Simulation time: 1 hr 34 min 13 sec) 
Heartbeat CPU 0 instructions: 220000003 cycles: 78447493 heartbeat IPC: 0.692885 cumulative IPC: 0.704003 (Simulation time: 1 hr 44 min 14 sec) 
Heartbeat CPU 0 instructions: 230000000 cycles: 92440969 heartbeat IPC: 0.714619 cumulative IPC: 0.707507 (Simulation time: 1 hr 53 min 45 sec) 
Heartbeat CPU 0 instructions: 240000000 cycles: 106224195 heartbeat IPC: 0.72552 cumulative IPC: 0.711926 (Simulation time: 2 hr 3 min 6 sec) 
Heartbeat CPU 0 instructions: 250000004 cycles: 120082079 heartbeat IPC: 0.721612 cumulative IPC: 0.713842 (Simulation time: 2 hr 13 min 12 sec) 
Heartbeat CPU 0 instructions: 260000001 cycles: 134136955 heartbeat IPC: 0.711497 cumulative IPC: 0.71345 (Simulation time: 2 hr 22 min 33 sec) 
Heartbeat CPU 0 instructions: 270000001 cycles: 148330392 heartbeat IPC: 0.704551 cumulative IPC: 0.712165 (Simulation time: 2 hr 31 min 56 sec) 
Heartbeat CPU 0 instructions: 280000002 cycles: 162145655 heartbeat IPC: 0.723838 cumulative IPC: 0.713604 (Simulation time: 2 hr 41 min 48 sec) 
Heartbeat CPU 0 instructions: 290000000 cycles: 176048347 heartbeat IPC: 0.719286 cumulative IPC: 0.71423 (Simulation time: 2 hr 52 min 18 sec) 
Heartbeat CPU 0 instructions: 300000002 cycles: 190336950 heartbeat IPC: 0.699859 cumulative IPC: 0.712767 (Simulation time: 3 hr 1 min 35 sec) 
Heartbeat CPU 0 instructions: 310000003 cycles: 204303384 heartbeat IPC: 0.716003 cumulative IPC: 0.71306 (Simulation time: 3 hr 11 min 0 sec) 
Heartbeat CPU 0 instructions: 320000004 cycles: 218508688 heartbeat IPC: 0.703963 cumulative IPC: 0.712293 (Simulation time: 3 hr 20 min 24 sec) 
Heartbeat CPU 0 instructions: 330000001 cycles: 232932194 heartbeat IPC: 0.693313 cumulative IPC: 0.710796 (Simulation time: 3 hr 29 min 5 sec) 
Heartbeat CPU 0 instructions: 340000002 cycles: 247489866 heartbeat IPC: 0.686924 cumulative IPC: 0.709036 (Simulation time: 3 hr 37 min 9 sec) 
Heartbeat CPU 0 instructions: 350000003 cycles: 261694793 heartbeat IPC: 0.703982 cumulative IPC: 0.708697 (Simulation time: 3 hr 45 min 24 sec) 
