41 41 41
Available num physical pages: 35184372088576
WARNING: physical memory size is smaller than virtual memory size

*** ChampSim Multicore Out-of-Order Simulator ***

Warmup Instructions: 200000000
Simulation Instructions: 200000000
Number of CPUs: 1
Page size: 4096

Basic BTB sets: 1024 ways: 8 indirect buffer size: 4096 RAS size: 64
cpu0_L1D Gaze NEW NEW prefetcher
Pattern Table index_len: 6
Off-chip DRAM Size: 4 GiB Channels: 1 Width: 64-bit Data Rate: 3200 MT/s
Heartbeat CPU 0 instructions: 10000001 cycles: 2750195 heartbeat IPC: 3.63611 cumulative IPC: 3.63611 (Simulation time: 0 hr 6 min 6 sec) 
Heartbeat CPU 0 instructions: 20000001 cycles: 5607332 heartbeat IPC: 3.50001 cumulative IPC: 3.56676 (Simulation time: 0 hr 13 min 7 sec) 
Heartbeat CPU 0 instructions: 30000001 cycles: 8369736 heartbeat IPC: 3.62004 cumulative IPC: 3.58435 (Simulation time: 0 hr 19 min 8 sec) 
Heartbeat CPU 0 instructions: 40000003 cycles: 11093141 heartbeat IPC: 3.67188 cumulative IPC: 3.60584 (Simulation time: 0 hr 24 min 53 sec) 
Heartbeat CPU 0 instructions: 50000000 cycles: 13818075 heartbeat IPC: 3.66982 cumulative IPC: 3.61845 (Simulation time: 0 hr 30 min 34 sec) 
Heartbeat CPU 0 instructions: 60000000 cycles: 16545347 heartbeat IPC: 3.66667 cumulative IPC: 3.6264 (Simulation time: 0 hr 36 min 15 sec) 
Heartbeat CPU 0 instructions: 70000003 cycles: 19284471 heartbeat IPC: 3.65081 cumulative IPC: 3.62987 (Simulation time: 0 hr 42 min 6 sec) 
Heartbeat CPU 0 instructions: 80000001 cycles: 22141614 heartbeat IPC: 3.5 cumulative IPC: 3.61311 (Simulation time: 0 hr 49 min 4 sec) 
Heartbeat CPU 0 instructions: 90000003 cycles: 24915392 heartbeat IPC: 3.6052 cumulative IPC: 3.61223 (Simulation time: 0 hr 55 min 17 sec) 
Heartbeat CPU 0 instructions: 100000002 cycles: 27638796 heartbeat IPC: 3.67188 cumulative IPC: 3.61811 (Simulation time: 1 hr 0 min 59 sec) 
Heartbeat CPU 0 instructions: 110000002 cycles: 30360984 heartbeat IPC: 3.67352 cumulative IPC: 3.62308 (Simulation time: 1 hr 6 min 41 sec) 
Heartbeat CPU 0 instructions: 120000004 cycles: 33080532 heartbeat IPC: 3.67709 cumulative IPC: 3.62752 (Simulation time: 1 hr 12 min 23 sec) 
Heartbeat CPU 0 instructions: 130000001 cycles: 35800079 heartbeat IPC: 3.67709 cumulative IPC: 3.63128 (Simulation time: 1 hr 18 min 7 sec) 
Heartbeat CPU 0 instructions: 140000002 cycles: 38657173 heartbeat IPC: 3.50007 cumulative IPC: 3.62158 (Simulation time: 1 hr 25 min 12 sec) 
Heartbeat CPU 0 instructions: 150000003 cycles: 41443205 heartbeat IPC: 3.58934 cumulative IPC: 3.61942 (Simulation time: 1 hr 31 min 33 sec) 
Heartbeat CPU 0 instructions: 160000002 cycles: 44166606 heartbeat IPC: 3.67188 cumulative IPC: 3.62265 (Simulation time: 1 hr 37 min 18 sec) 
Heartbeat CPU 0 instructions: 170000001 cycles: 46888293 heartbeat IPC: 3.6742 cumulative IPC: 3.62564 (Simulation time: 1 hr 43 min 2 sec) 
Heartbeat CPU 0 instructions: 180000002 cycles: 49603997 heartbeat IPC: 3.68229 cumulative IPC: 3.62874 (Simulation time: 1 hr 48 min 47 sec) 
Heartbeat CPU 0 instructions: 190000002 cycles: 52319694 heartbeat IPC: 3.6823 cumulative IPC: 3.63152 (Simulation time: 1 hr 54 min 30 sec) 
Heartbeat CPU 0 instructions: 200000002 cycles: 55163365 heartbeat IPC: 3.51659 cumulative IPC: 3.6256 (Simulation time: 2 hr 1 min 25 sec) 
Max paddr 33M
Warmup finished CPU 0 instructions: 200000002 cycles: 55163366 cumulative IPC: 3.6256 (Simulation time: 2 hr 1 min 25 sec) 

Warmup complete CPU 0 instructions: 200000002 cycles: 55163366 (Simulation time: 2 hr 1 min 25 sec) 

Heartbeat CPU 0 instructions: 210000002 cycles: 71427979 heartbeat IPC: 0.614832 cumulative IPC: 0.614832 (Simulation time: 2 hr 24 min 1 sec) 
Heartbeat CPU 0 instructions: 220000003 cycles: 75125106 heartbeat IPC: 2.70481 cumulative IPC: 1.00192 (Simulation time: 2 hr 31 min 36 sec) 
Heartbeat CPU 0 instructions: 230000001 cycles: 79438683 heartbeat IPC: 2.31827 cumulative IPC: 1.23583 (Simulation time: 2 hr 40 min 13 sec) 
Heartbeat CPU 0 instructions: 240000001 cycles: 102689735 heartbeat IPC: 0.430089 cumulative IPC: 0.841639 (Simulation time: 3 hr 10 min 52 sec) 
Heartbeat CPU 0 instructions: 250000000 cycles: 115020477 heartbeat IPC: 0.810982 cumulative IPC: 0.835323 (Simulation time: 3 hr 28 min 22 sec) 
Heartbeat CPU 0 instructions: 260000001 cycles: 118747654 heartbeat IPC: 2.683 cumulative IPC: 0.94363 (Simulation time: 3 hr 36 min 11 sec) 
Heartbeat CPU 0 instructions: 270000004 cycles: 123497560 heartbeat IPC: 2.10531 cumulative IPC: 1.02438 (Simulation time: 3 hr 44 min 44 sec) 
Heartbeat CPU 0 instructions: 280000000 cycles: 132692504 heartbeat IPC: 1.08756 cumulative IPC: 1.03188 (Simulation time: 3 hr 56 min 33 sec) 
Heartbeat CPU 0 instructions: 290000003 cycles: 141906145 heartbeat IPC: 1.08535 cumulative IPC: 1.03756 (Simulation time: 4 hr 8 min 21 sec) 
Heartbeat CPU 0 instructions: 300000000 cycles: 161469560 heartbeat IPC: 0.511159 cumulative IPC: 0.940679 (Simulation time: 4 hr 33 min 58 sec) 
Heartbeat CPU 0 instructions: 310000002 cycles: 180581361 heartbeat IPC: 0.523238 cumulative IPC: 0.877068 (Simulation time: 4 hr 59 min 5 sec) 
Heartbeat CPU 0 instructions: 320000001 cycles: 184514215 heartbeat IPC: 2.54269 cumulative IPC: 0.92771 (Simulation time: 5 hr 6 min 39 sec) 
Heartbeat CPU 0 instructions: 330000004 cycles: 188446776 heartbeat IPC: 2.54288 cumulative IPC: 0.975366 (Simulation time: 5 hr 14 min 17 sec) 
Heartbeat CPU 0 instructions: 340000001 cycles: 194724326 heartbeat IPC: 1.59298 cumulative IPC: 1.00315 (Simulation time: 5 hr 22 min 56 sec) 
Heartbeat CPU 0 instructions: 350000004 cycles: 201811723 heartbeat IPC: 1.41096 cumulative IPC: 1.02286 (Simulation time: 5 hr 31 min 27 sec) 
Heartbeat CPU 0 instructions: 360000000 cycles: 214596116 heartbeat IPC: 0.782204 cumulative IPC: 1.00356 (Simulation time: 5 hr 46 min 10 sec) 
