41 41 41
Available num physical pages: 35184372088576
WARNING: physical memory size is smaller than virtual memory size

*** ChampSim Multicore Out-of-Order Simulator ***

Warmup Instructions: 200000000
Simulation Instructions: 200000000
Number of CPUs: 1
Page size: 4096

Basic BTB sets: 1024 ways: 8 indirect buffer size: 4096 RAS size: 64
cpu0_L1D Gaze NEW NEW prefetcher
Pattern Table index_len: 6
Off-chip DRAM Size: 4 GiB Channels: 1 Width: 64-bit Data Rate: 3200 MT/s
Heartbeat CPU 0 instructions: 10000000 cycles: 2611075 heartbeat IPC: 3.82985 cumulative IPC: 3.82985 (Simulation time: 0 hr 8 min 14 sec) 
Heartbeat CPU 0 instructions: 20000001 cycles: 5187735 heartbeat IPC: 3.881 cumulative IPC: 3.85525 (Simulation time: 0 hr 16 min 22 sec) 
Heartbeat CPU 0 instructions: 30000001 cycles: 7799639 heartbeat IPC: 3.82863 cumulative IPC: 3.84634 (Simulation time: 0 hr 24 min 37 sec) 
Heartbeat CPU 0 instructions: 40000002 cycles: 10381071 heartbeat IPC: 3.87382 cumulative IPC: 3.85317 (Simulation time: 0 hr 32 min 46 sec) 
Heartbeat CPU 0 instructions: 50000001 cycles: 12991938 heartbeat IPC: 3.83015 cumulative IPC: 3.84855 (Simulation time: 0 hr 41 min 3 sec) 
Heartbeat CPU 0 instructions: 60000001 cycles: 15574017 heartbeat IPC: 3.87285 cumulative IPC: 3.85258 (Simulation time: 0 hr 49 min 17 sec) 
Heartbeat CPU 0 instructions: 70000000 cycles: 18167690 heartbeat IPC: 3.85554 cumulative IPC: 3.853 (Simulation time: 0 hr 57 min 28 sec) 
Heartbeat CPU 0 instructions: 80000003 cycles: 20759087 heartbeat IPC: 3.85893 cumulative IPC: 3.85374 (Simulation time: 1 hr 5 min 42 sec) 
Heartbeat CPU 0 instructions: 90000002 cycles: 23332084 heartbeat IPC: 3.88652 cumulative IPC: 3.85735 (Simulation time: 1 hr 13 min 41 sec) 
Heartbeat CPU 0 instructions: 100000001 cycles: 25943830 heartbeat IPC: 3.82886 cumulative IPC: 3.85449 (Simulation time: 1 hr 22 min 1 sec) 
Heartbeat CPU 0 instructions: 110000001 cycles: 28520344 heartbeat IPC: 3.88122 cumulative IPC: 3.8569 (Simulation time: 1 hr 30 min 5 sec) 
Heartbeat CPU 0 instructions: 120000002 cycles: 31102097 heartbeat IPC: 3.87334 cumulative IPC: 3.85827 (Simulation time: 1 hr 38 min 17 sec) 
Heartbeat CPU 0 instructions: 130000002 cycles: 33712465 heartbeat IPC: 3.83088 cumulative IPC: 3.85615 (Simulation time: 1 hr 46 min 17 sec) 
Heartbeat CPU 0 instructions: 140000001 cycles: 36294207 heartbeat IPC: 3.87336 cumulative IPC: 3.85737 (Simulation time: 1 hr 54 min 30 sec) 
Heartbeat CPU 0 instructions: 150000001 cycles: 38884082 heartbeat IPC: 3.8612 cumulative IPC: 3.85762 (Simulation time: 2 hr 2 min 47 sec) 
Heartbeat CPU 0 instructions: 160000001 cycles: 41486312 heartbeat IPC: 3.84286 cumulative IPC: 3.8567 (Simulation time: 2 hr 10 min 56 sec) 
Heartbeat CPU 0 instructions: 170000000 cycles: 44059348 heartbeat IPC: 3.88646 cumulative IPC: 3.85844 (Simulation time: 2 hr 18 min 45 sec) 
Heartbeat CPU 0 instructions: 180000000 cycles: 46667651 heartbeat IPC: 3.83392 cumulative IPC: 3.85707 (Simulation time: 2 hr 26 min 46 sec) 
Heartbeat CPU 0 instructions: 190000001 cycles: 49242818 heartbeat IPC: 3.88325 cumulative IPC: 3.85844 (Simulation time: 2 hr 34 min 42 sec) 
Heartbeat CPU 0 instructions: 200000001 cycles: 51846693 heartbeat IPC: 3.84044 cumulative IPC: 3.85753 (Simulation time: 2 hr 42 min 25 sec) 
Max paddr 504M
Warmup finished CPU 0 instructions: 200000001 cycles: 51846694 cumulative IPC: 3.85753 (Simulation time: 2 hr 42 min 25 sec) 

Warmup complete CPU 0 instructions: 200000001 cycles: 51846694 (Simulation time: 2 hr 42 min 25 sec) 

Heartbeat CPU 0 instructions: 210000000 cycles: 128324524 heartbeat IPC: 0.130757 cumulative IPC: 0.130757 (Simulation time: 3 hr 30 min 41 sec) 
Heartbeat CPU 0 instructions: 220000001 cycles: 218027316 heartbeat IPC: 0.11148 cumulative IPC: 0.120351 (Simulation time: 4 hr 24 min 55 sec) 
Heartbeat CPU 0 instructions: 230000000 cycles: 301409769 heartbeat IPC: 0.11993 cumulative IPC: 0.120211 (Simulation time: 5 hr 17 min 21 sec) 
Heartbeat CPU 0 instructions: 240000004 cycles: 380969754 heartbeat IPC: 0.125692 cumulative IPC: 0.121536 (Simulation time: 6 hr 2 min 18 sec) 
