41 41 41
Available num physical pages: 35184372088576
WARNING: physical memory size is smaller than virtual memory size

*** ChampSim Multicore Out-of-Order Simulator ***

Warmup Instructions: 200000000
Simulation Instructions: 200000000
Number of CPUs: 1
Page size: 4096

Basic BTB sets: 1024 ways: 8 indirect buffer size: 4096 RAS size: 64
cpu0_L1D Gaze NEW NEW prefetcher
Pattern Table index_len: 6
Off-chip DRAM Size: 4 GiB Channels: 1 Width: 64-bit Data Rate: 3200 MT/s
Heartbeat CPU 0 instructions: 10000000 cycles: 2611075 heartbeat IPC: 3.82985 cumulative IPC: 3.82985 (Simulation time: 0 hr 10 min 4 sec) 
Heartbeat CPU 0 instructions: 20000001 cycles: 5187735 heartbeat IPC: 3.881 cumulative IPC: 3.85525 (Simulation time: 0 hr 19 min 42 sec) 
Heartbeat CPU 0 instructions: 30000001 cycles: 7799639 heartbeat IPC: 3.82863 cumulative IPC: 3.84634 (Simulation time: 0 hr 29 min 56 sec) 
Heartbeat CPU 0 instructions: 40000002 cycles: 10381071 heartbeat IPC: 3.87382 cumulative IPC: 3.85317 (Simulation time: 0 hr 39 min 51 sec) 
Heartbeat CPU 0 instructions: 50000001 cycles: 12991938 heartbeat IPC: 3.83015 cumulative IPC: 3.84855 (Simulation time: 0 hr 49 min 53 sec) 
Heartbeat CPU 0 instructions: 60000001 cycles: 15574017 heartbeat IPC: 3.87285 cumulative IPC: 3.85258 (Simulation time: 0 hr 59 min 43 sec) 
Heartbeat CPU 0 instructions: 70000000 cycles: 18167690 heartbeat IPC: 3.85554 cumulative IPC: 3.853 (Simulation time: 1 hr 9 min 38 sec) 
Heartbeat CPU 0 instructions: 80000003 cycles: 20759087 heartbeat IPC: 3.85893 cumulative IPC: 3.85374 (Simulation time: 1 hr 19 min 14 sec) 
Heartbeat CPU 0 instructions: 90000002 cycles: 23332084 heartbeat IPC: 3.88652 cumulative IPC: 3.85735 (Simulation time: 1 hr 28 min 54 sec) 
Heartbeat CPU 0 instructions: 100000001 cycles: 25943830 heartbeat IPC: 3.82886 cumulative IPC: 3.85449 (Simulation time: 1 hr 38 min 54 sec) 
Heartbeat CPU 0 instructions: 110000001 cycles: 28520344 heartbeat IPC: 3.88122 cumulative IPC: 3.8569 (Simulation time: 1 hr 48 min 32 sec) 
Heartbeat CPU 0 instructions: 120000002 cycles: 31102097 heartbeat IPC: 3.87334 cumulative IPC: 3.85827 (Simulation time: 1 hr 58 min 13 sec) 
Heartbeat CPU 0 instructions: 130000002 cycles: 33712465 heartbeat IPC: 3.83088 cumulative IPC: 3.85615 (Simulation time: 2 hr 8 min 3 sec) 
Heartbeat CPU 0 instructions: 140000001 cycles: 36294207 heartbeat IPC: 3.87336 cumulative IPC: 3.85737 (Simulation time: 2 hr 17 min 58 sec) 
Heartbeat CPU 0 instructions: 150000001 cycles: 38884082 heartbeat IPC: 3.8612 cumulative IPC: 3.85762 (Simulation time: 2 hr 27 min 50 sec) 
Heartbeat CPU 0 instructions: 160000001 cycles: 41486312 heartbeat IPC: 3.84286 cumulative IPC: 3.8567 (Simulation time: 2 hr 37 min 46 sec) 
Heartbeat CPU 0 instructions: 170000000 cycles: 44059348 heartbeat IPC: 3.88646 cumulative IPC: 3.85844 (Simulation time: 2 hr 47 min 18 sec) 
Heartbeat CPU 0 instructions: 180000000 cycles: 46667651 heartbeat IPC: 3.83392 cumulative IPC: 3.85707 (Simulation time: 2 hr 56 min 58 sec) 
Heartbeat CPU 0 instructions: 190000001 cycles: 49242818 heartbeat IPC: 3.88325 cumulative IPC: 3.85844 (Simulation time: 3 hr 6 min 30 sec) 
Heartbeat CPU 0 instructions: 200000001 cycles: 51846693 heartbeat IPC: 3.84044 cumulative IPC: 3.85753 (Simulation time: 3 hr 16 min 19 sec) 
Max paddr 504M
Warmup finished CPU 0 instructions: 200000001 cycles: 51846694 cumulative IPC: 3.85753 (Simulation time: 3 hr 16 min 19 sec) 

Warmup complete CPU 0 instructions: 200000001 cycles: 51846694 (Simulation time: 3 hr 16 min 19 sec) 

Heartbeat CPU 0 instructions: 210000000 cycles: 128324524 heartbeat IPC: 0.130757 cumulative IPC: 0.130757 (Simulation time: 4 hr 12 min 23 sec) 
Heartbeat CPU 0 instructions: 220000001 cycles: 218027316 heartbeat IPC: 0.11148 cumulative IPC: 0.120351 (Simulation time: 5 hr 14 min 34 sec) 
Heartbeat CPU 0 instructions: 230000000 cycles: 301409769 heartbeat IPC: 0.11993 cumulative IPC: 0.120211 (Simulation time: 6 hr 16 min 26 sec) 
Heartbeat CPU 0 instructions: 240000004 cycles: 380969754 heartbeat IPC: 0.125692 cumulative IPC: 0.121536 (Simulation time: 7 hr 7 min 2 sec) 
Heartbeat CPU 0 instructions: 250000004 cycles: 474538599 heartbeat IPC: 0.106874 cumulative IPC: 0.11829 (Simulation time: 7 hr 56 min 44 sec) 
Heartbeat CPU 0 instructions: 260000001 cycles: 560952376 heartbeat IPC: 0.115723 cumulative IPC: 0.117854 (Simulation time: 8 hr 35 min 54 sec) 
Heartbeat CPU 0 instructions: 270000003 cycles: 653818456 heartbeat IPC: 0.107682 cumulative IPC: 0.116285 (Simulation time: 9 hr 10 min 1 sec) 
Heartbeat CPU 0 instructions: 280000000 cycles: 732877579 heartbeat IPC: 0.126488 cumulative IPC: 0.117469 (Simulation time: 9 hr 28 min 50 sec) 
Heartbeat CPU 0 instructions: 290000000 cycles: 820408328 heartbeat IPC: 0.114246 cumulative IPC: 0.117102 (Simulation time: 9 hr 40 min 19 sec) 
Heartbeat CPU 0 instructions: 300000000 cycles: 901013038 heartbeat IPC: 0.124063 cumulative IPC: 0.117763 (Simulation time: 9 hr 47 min 36 sec) 
