41 41 41
Available num physical pages: 35184372088576
WARNING: physical memory size is smaller than virtual memory size

*** ChampSim Multicore Out-of-Order Simulator ***

Warmup Instructions: 200000000
Simulation Instructions: 200000000
Number of CPUs: 1
Page size: 4096

Basic BTB sets: 1024 ways: 8 indirect buffer size: 4096 RAS size: 64
cpu0_L1D Gaze NEW NEW prefetcher
Pattern Table index_len: 6
Off-chip DRAM Size: 4 GiB Channels: 1 Width: 64-bit Data Rate: 3200 MT/s
Heartbeat CPU 0 instructions: 10000003 cycles: 2500051 heartbeat IPC: 3.99992 cumulative IPC: 3.99992 (Simulation time: 0 hr 4 min 8 sec) 
Heartbeat CPU 0 instructions: 20000003 cycles: 5000051 heartbeat IPC: 4 cumulative IPC: 3.99996 (Simulation time: 0 hr 9 min 9 sec) 
Heartbeat CPU 0 instructions: 30000003 cycles: 7500051 heartbeat IPC: 4 cumulative IPC: 3.99998 (Simulation time: 0 hr 14 min 4 sec) 
Heartbeat CPU 0 instructions: 40000003 cycles: 10000051 heartbeat IPC: 4 cumulative IPC: 3.99998 (Simulation time: 0 hr 18 min 54 sec) 
Heartbeat CPU 0 instructions: 50000003 cycles: 12500051 heartbeat IPC: 4 cumulative IPC: 3.99999 (Simulation time: 0 hr 23 min 46 sec) 
Heartbeat CPU 0 instructions: 60000003 cycles: 15000051 heartbeat IPC: 4 cumulative IPC: 3.99999 (Simulation time: 0 hr 28 min 42 sec) 
Heartbeat CPU 0 instructions: 70000003 cycles: 17500051 heartbeat IPC: 4 cumulative IPC: 3.99999 (Simulation time: 0 hr 33 min 38 sec) 
Heartbeat CPU 0 instructions: 80000003 cycles: 20000051 heartbeat IPC: 4 cumulative IPC: 3.99999 (Simulation time: 0 hr 38 min 59 sec) 
Heartbeat CPU 0 instructions: 90000003 cycles: 22500051 heartbeat IPC: 4 cumulative IPC: 4 (Simulation time: 0 hr 43 min 53 sec) 
Heartbeat CPU 0 instructions: 100000003 cycles: 25000051 heartbeat IPC: 4 cumulative IPC: 4 (Simulation time: 0 hr 49 min 6 sec) 
Heartbeat CPU 0 instructions: 110000003 cycles: 27500051 heartbeat IPC: 4 cumulative IPC: 4 (Simulation time: 0 hr 54 min 7 sec) 
Heartbeat CPU 0 instructions: 120000003 cycles: 30000051 heartbeat IPC: 4 cumulative IPC: 4 (Simulation time: 0 hr 59 min 11 sec) 
Heartbeat CPU 0 instructions: 130000003 cycles: 32500051 heartbeat IPC: 4 cumulative IPC: 4 (Simulation time: 1 hr 4 min 17 sec) 
Heartbeat CPU 0 instructions: 140000003 cycles: 35000051 heartbeat IPC: 4 cumulative IPC: 4 (Simulation time: 1 hr 9 min 39 sec) 
Heartbeat CPU 0 instructions: 150000003 cycles: 37500051 heartbeat IPC: 4 cumulative IPC: 4 (Simulation time: 1 hr 14 min 32 sec) 
Heartbeat CPU 0 instructions: 160000003 cycles: 40000051 heartbeat IPC: 4 cumulative IPC: 4 (Simulation time: 1 hr 19 min 26 sec) 
Heartbeat CPU 0 instructions: 170000003 cycles: 42500051 heartbeat IPC: 4 cumulative IPC: 4 (Simulation time: 1 hr 24 min 11 sec) 
Heartbeat CPU 0 instructions: 180000003 cycles: 45000051 heartbeat IPC: 4 cumulative IPC: 4 (Simulation time: 1 hr 28 min 41 sec) 
Heartbeat CPU 0 instructions: 190000003 cycles: 47500051 heartbeat IPC: 4 cumulative IPC: 4 (Simulation time: 1 hr 33 min 19 sec) 
Heartbeat CPU 0 instructions: 200000003 cycles: 50000051 heartbeat IPC: 4 cumulative IPC: 4 (Simulation time: 1 hr 37 min 49 sec) 
Max paddr 214M
Warmup finished CPU 0 instructions: 200000003 cycles: 50000052 cumulative IPC: 4 (Simulation time: 1 hr 37 min 49 sec) 

Warmup complete CPU 0 instructions: 200000003 cycles: 50000052 (Simulation time: 1 hr 37 min 49 sec) 

Heartbeat CPU 0 instructions: 210000002 cycles: 56749819 heartbeat IPC: 1.48154 cumulative IPC: 1.48154 (Simulation time: 1 hr 45 min 24 sec) 
Heartbeat CPU 0 instructions: 220000004 cycles: 63513401 heartbeat IPC: 1.47851 cumulative IPC: 1.48002 (Simulation time: 1 hr 52 min 59 sec) 
Heartbeat CPU 0 instructions: 230000003 cycles: 70318053 heartbeat IPC: 1.46959 cumulative IPC: 1.47653 (Simulation time: 2 hr 0 min 33 sec) 
Heartbeat CPU 0 instructions: 240000002 cycles: 77123334 heartbeat IPC: 1.46945 cumulative IPC: 1.47475 (Simulation time: 2 hr 8 min 14 sec) 
Heartbeat CPU 0 instructions: 250000000 cycles: 83849336 heartbeat IPC: 1.48677 cumulative IPC: 1.47714 (Simulation time: 2 hr 15 min 55 sec) 
Heartbeat CPU 0 instructions: 260000004 cycles: 90566960 heartbeat IPC: 1.48863 cumulative IPC: 1.47904 (Simulation time: 2 hr 23 min 57 sec) 
Heartbeat CPU 0 instructions: 270000004 cycles: 97324429 heartbeat IPC: 1.47985 cumulative IPC: 1.47916 (Simulation time: 2 hr 31 min 48 sec) 
Heartbeat CPU 0 instructions: 280000004 cycles: 104097323 heartbeat IPC: 1.47648 cumulative IPC: 1.47882 (Simulation time: 2 hr 39 min 20 sec) 
Heartbeat CPU 0 instructions: 290000004 cycles: 110884884 heartbeat IPC: 1.47329 cumulative IPC: 1.47821 (Simulation time: 2 hr 47 min 36 sec) 
Heartbeat CPU 0 instructions: 300000003 cycles: 117543225 heartbeat IPC: 1.50188 cumulative IPC: 1.48054 (Simulation time: 2 hr 55 min 16 sec) 
Heartbeat CPU 0 instructions: 310000004 cycles: 124300306 heartbeat IPC: 1.47993 cumulative IPC: 1.48048 (Simulation time: 3 hr 3 min 27 sec) 
Heartbeat CPU 0 instructions: 320000000 cycles: 131058705 heartbeat IPC: 1.47964 cumulative IPC: 1.48041 (Simulation time: 3 hr 11 min 0 sec) 
Heartbeat CPU 0 instructions: 330000001 cycles: 137799542 heartbeat IPC: 1.4835 cumulative IPC: 1.48065 (Simulation time: 3 hr 18 min 49 sec) 
Heartbeat CPU 0 instructions: 340000000 cycles: 144553066 heartbeat IPC: 1.48071 cumulative IPC: 1.48066 (Simulation time: 3 hr 25 min 52 sec) 
Heartbeat CPU 0 instructions: 350000003 cycles: 150380984 heartbeat IPC: 1.71588 cumulative IPC: 1.49431 (Simulation time: 3 hr 30 min 51 sec) 
Heartbeat CPU 0 instructions: 360000004 cycles: 155581799 heartbeat IPC: 1.92278 cumulative IPC: 1.51542 (Simulation time: 3 hr 34 min 6 sec) 
Heartbeat CPU 0 instructions: 370000002 cycles: 163382041 heartbeat IPC: 1.28202 cumulative IPC: 1.49936 (Simulation time: 3 hr 39 min 20 sec) 
Heartbeat CPU 0 instructions: 380000004 cycles: 171840976 heartbeat IPC: 1.18219 cumulative IPC: 1.47734 (Simulation time: 3 hr 44 min 41 sec) 
Heartbeat CPU 0 instructions: 390000001 cycles: 178731112 heartbeat IPC: 1.45135 cumulative IPC: 1.47595 (Simulation time: 3 hr 49 min 50 sec) 
