41 41 41
Available num physical pages: 35184372088576
WARNING: physical memory size is smaller than virtual memory size

*** ChampSim Multicore Out-of-Order Simulator ***

Warmup Instructions: 200000000
Simulation Instructions: 200000000
Number of CPUs: 1
Page size: 4096

Basic BTB sets: 1024 ways: 8 indirect buffer size: 4096 RAS size: 64
cpu0_L1D Gaze NEW NEW prefetcher
Pattern Table index_len: 6
Off-chip DRAM Size: 4 GiB Channels: 1 Width: 64-bit Data Rate: 3200 MT/s
Heartbeat CPU 0 instructions: 10000000 cycles: 2598148 heartbeat IPC: 3.8489 cumulative IPC: 3.8489 (Simulation time: 0 hr 6 min 25 sec) 
Heartbeat CPU 0 instructions: 20000001 cycles: 5184261 heartbeat IPC: 3.86681 cumulative IPC: 3.85784 (Simulation time: 0 hr 12 min 48 sec) 
Heartbeat CPU 0 instructions: 30000002 cycles: 7763224 heartbeat IPC: 3.87753 cumulative IPC: 3.86438 (Simulation time: 0 hr 19 min 13 sec) 
Heartbeat CPU 0 instructions: 40000003 cycles: 10342204 heartbeat IPC: 3.87751 cumulative IPC: 3.86765 (Simulation time: 0 hr 25 min 36 sec) 
Heartbeat CPU 0 instructions: 50000003 cycles: 12921088 heartbeat IPC: 3.87765 cumulative IPC: 3.86965 (Simulation time: 0 hr 31 min 58 sec) 
Heartbeat CPU 0 instructions: 60000002 cycles: 15550995 heartbeat IPC: 3.80242 cumulative IPC: 3.85828 (Simulation time: 0 hr 38 min 24 sec) 
Heartbeat CPU 0 instructions: 70000002 cycles: 18216419 heartbeat IPC: 3.75175 cumulative IPC: 3.84269 (Simulation time: 0 hr 45 min 50 sec) 
Heartbeat CPU 0 instructions: 80000002 cycles: 20834381 heartbeat IPC: 3.81977 cumulative IPC: 3.83981 (Simulation time: 0 hr 53 min 23 sec) 
Heartbeat CPU 0 instructions: 90000000 cycles: 23438831 heartbeat IPC: 3.83959 cumulative IPC: 3.83979 (Simulation time: 0 hr 59 min 48 sec) 
Heartbeat CPU 0 instructions: 100000001 cycles: 26017767 heartbeat IPC: 3.87757 cumulative IPC: 3.84353 (Simulation time: 1 hr 6 min 21 sec) 
Heartbeat CPU 0 instructions: 110000001 cycles: 28596691 heartbeat IPC: 3.87759 cumulative IPC: 3.8466 (Simulation time: 1 hr 12 min 46 sec) 
Heartbeat CPU 0 instructions: 120000003 cycles: 31175617 heartbeat IPC: 3.87759 cumulative IPC: 3.84917 (Simulation time: 1 hr 19 min 10 sec) 
Heartbeat CPU 0 instructions: 130000001 cycles: 33805550 heartbeat IPC: 3.80238 cumulative IPC: 3.84553 (Simulation time: 1 hr 25 min 36 sec) 
Heartbeat CPU 0 instructions: 140000003 cycles: 36385032 heartbeat IPC: 3.87675 cumulative IPC: 3.84774 (Simulation time: 1 hr 32 min 2 sec) 
Heartbeat CPU 0 instructions: 150000002 cycles: 38963972 heartbeat IPC: 3.87757 cumulative IPC: 3.84972 (Simulation time: 1 hr 38 min 29 sec) 
Heartbeat CPU 0 instructions: 160000001 cycles: 41545398 heartbeat IPC: 3.87383 cumulative IPC: 3.85121 (Simulation time: 1 hr 44 min 55 sec) 
Heartbeat CPU 0 instructions: 170000000 cycles: 44140001 heartbeat IPC: 3.85416 cumulative IPC: 3.85139 (Simulation time: 1 hr 51 min 34 sec) 
Heartbeat CPU 0 instructions: 180000001 cycles: 46775143 heartbeat IPC: 3.79487 cumulative IPC: 3.8482 (Simulation time: 1 hr 59 min 15 sec) 
Heartbeat CPU 0 instructions: 190000001 cycles: 49386938 heartbeat IPC: 3.82879 cumulative IPC: 3.84718 (Simulation time: 2 hr 6 min 23 sec) 
Heartbeat CPU 0 instructions: 200000001 cycles: 52016876 heartbeat IPC: 3.80238 cumulative IPC: 3.84491 (Simulation time: 2 hr 12 min 44 sec) 
Max paddr 52M
Warmup finished CPU 0 instructions: 200000001 cycles: 52016877 cumulative IPC: 3.84491 (Simulation time: 2 hr 12 min 44 sec) 

Warmup complete CPU 0 instructions: 200000001 cycles: 52016877 (Simulation time: 2 hr 12 min 44 sec) 

Heartbeat CPU 0 instructions: 210000000 cycles: 73785991 heartbeat IPC: 0.459367 cumulative IPC: 0.459367 (Simulation time: 2 hr 31 min 45 sec) 
Heartbeat CPU 0 instructions: 220000001 cycles: 95803835 heartbeat IPC: 0.454178 cumulative IPC: 0.456758 (Simulation time: 2 hr 50 min 30 sec) 
Heartbeat CPU 0 instructions: 230000001 cycles: 118441118 heartbeat IPC: 0.44175 cumulative IPC: 0.451643 (Simulation time: 3 hr 10 min 14 sec) 
Heartbeat CPU 0 instructions: 240000000 cycles: 142048306 heartbeat IPC: 0.4236 cumulative IPC: 0.44429 (Simulation time: 3 hr 29 min 39 sec) 
Heartbeat CPU 0 instructions: 250000000 cycles: 167325360 heartbeat IPC: 0.395616 cumulative IPC: 0.43362 (Simulation time: 3 hr 51 min 29 sec) 
Heartbeat CPU 0 instructions: 260000002 cycles: 189396403 heartbeat IPC: 0.453083 cumulative IPC: 0.436747 (Simulation time: 4 hr 9 min 52 sec) 
Heartbeat CPU 0 instructions: 270000000 cycles: 211602450 heartbeat IPC: 0.450328 cumulative IPC: 0.438637 (Simulation time: 4 hr 28 min 32 sec) 
Heartbeat CPU 0 instructions: 280000003 cycles: 240274159 heartbeat IPC: 0.348776 cumulative IPC: 0.424951 (Simulation time: 4 hr 51 min 31 sec) 
Heartbeat CPU 0 instructions: 290000000 cycles: 255604352 heartbeat IPC: 0.652308 cumulative IPC: 0.442071 (Simulation time: 5 hr 8 min 6 sec) 
Heartbeat CPU 0 instructions: 300000000 cycles: 278293633 heartbeat IPC: 0.440737 cumulative IPC: 0.441937 (Simulation time: 5 hr 27 min 12 sec) 
Heartbeat CPU 0 instructions: 310000000 cycles: 302397992 heartbeat IPC: 0.414863 cumulative IPC: 0.439331 (Simulation time: 5 hr 45 min 31 sec) 
Heartbeat CPU 0 instructions: 320000004 cycles: 327184915 heartbeat IPC: 0.403439 cumulative IPC: 0.436098 (Simulation time: 6 hr 3 min 44 sec) 
