41 41 41
Available num physical pages: 35184372088576
WARNING: physical memory size is smaller than virtual memory size

*** ChampSim Multicore Out-of-Order Simulator ***

Warmup Instructions: 200000000
Simulation Instructions: 200000000
Number of CPUs: 1
Page size: 4096

Basic BTB sets: 1024 ways: 8 indirect buffer size: 4096 RAS size: 64
cpu0_L1D Gaze NEW NEW prefetcher
Pattern Table index_len: 6
Off-chip DRAM Size: 4 GiB Channels: 1 Width: 64-bit Data Rate: 3200 MT/s
Heartbeat CPU 0 instructions: 10000003 cycles: 2500077 heartbeat IPC: 3.99988 cumulative IPC: 3.99988 (Simulation time: 0 hr 3 min 24 sec) 
Heartbeat CPU 0 instructions: 20000003 cycles: 5000077 heartbeat IPC: 4 cumulative IPC: 3.99994 (Simulation time: 0 hr 7 min 20 sec) 
Heartbeat CPU 0 instructions: 30000003 cycles: 7500077 heartbeat IPC: 4 cumulative IPC: 3.99996 (Simulation time: 0 hr 11 min 18 sec) 
Heartbeat CPU 0 instructions: 40000003 cycles: 10000077 heartbeat IPC: 4 cumulative IPC: 3.99997 (Simulation time: 0 hr 15 min 10 sec) 
Heartbeat CPU 0 instructions: 50000003 cycles: 12500077 heartbeat IPC: 4 cumulative IPC: 3.99998 (Simulation time: 0 hr 19 min 1 sec) 
Heartbeat CPU 0 instructions: 60000003 cycles: 15000077 heartbeat IPC: 4 cumulative IPC: 3.99998 (Simulation time: 0 hr 23 min 7 sec) 
Heartbeat CPU 0 instructions: 70000003 cycles: 17500077 heartbeat IPC: 4 cumulative IPC: 3.99999 (Simulation time: 0 hr 27 min 6 sec) 
Heartbeat CPU 0 instructions: 80000003 cycles: 20000077 heartbeat IPC: 4 cumulative IPC: 3.99999 (Simulation time: 0 hr 31 min 1 sec) 
Heartbeat CPU 0 instructions: 90000003 cycles: 22500077 heartbeat IPC: 4 cumulative IPC: 3.99999 (Simulation time: 0 hr 34 min 57 sec) 
Heartbeat CPU 0 instructions: 100000003 cycles: 25000077 heartbeat IPC: 4 cumulative IPC: 3.99999 (Simulation time: 0 hr 38 min 45 sec) 
Heartbeat CPU 0 instructions: 110000003 cycles: 27500077 heartbeat IPC: 4 cumulative IPC: 3.99999 (Simulation time: 0 hr 43 min 12 sec) 
Heartbeat CPU 0 instructions: 120000003 cycles: 30000077 heartbeat IPC: 4 cumulative IPC: 3.99999 (Simulation time: 0 hr 47 min 12 sec) 
Heartbeat CPU 0 instructions: 130000003 cycles: 32500077 heartbeat IPC: 4 cumulative IPC: 4 (Simulation time: 0 hr 51 min 25 sec) 
Heartbeat CPU 0 instructions: 140000003 cycles: 35000077 heartbeat IPC: 4 cumulative IPC: 4 (Simulation time: 0 hr 55 min 27 sec) 
Heartbeat CPU 0 instructions: 150000003 cycles: 37500077 heartbeat IPC: 4 cumulative IPC: 4 (Simulation time: 0 hr 59 min 43 sec) 
Heartbeat CPU 0 instructions: 160000003 cycles: 40000077 heartbeat IPC: 4 cumulative IPC: 4 (Simulation time: 1 hr 3 min 52 sec) 
Heartbeat CPU 0 instructions: 170000003 cycles: 42500077 heartbeat IPC: 4 cumulative IPC: 4 (Simulation time: 1 hr 8 min 9 sec) 
Heartbeat CPU 0 instructions: 180000003 cycles: 45000077 heartbeat IPC: 4 cumulative IPC: 4 (Simulation time: 1 hr 12 min 26 sec) 
Heartbeat CPU 0 instructions: 190000003 cycles: 47500077 heartbeat IPC: 4 cumulative IPC: 4 (Simulation time: 1 hr 16 min 42 sec) 
Heartbeat CPU 0 instructions: 200000003 cycles: 50000077 heartbeat IPC: 4 cumulative IPC: 4 (Simulation time: 1 hr 20 min 44 sec) 
Max paddr 66M
Warmup finished CPU 0 instructions: 200000003 cycles: 50000078 cumulative IPC: 4 (Simulation time: 1 hr 20 min 44 sec) 

Warmup complete CPU 0 instructions: 200000003 cycles: 50000078 (Simulation time: 1 hr 20 min 44 sec) 

Heartbeat CPU 0 instructions: 210000001 cycles: 83563490 heartbeat IPC: 0.297944 cumulative IPC: 0.297944 (Simulation time: 1 hr 33 min 0 sec) 
Heartbeat CPU 0 instructions: 220000001 cycles: 117595426 heartbeat IPC: 0.293842 cumulative IPC: 0.295879 (Simulation time: 1 hr 45 min 12 sec) 
Heartbeat CPU 0 instructions: 230000001 cycles: 151493265 heartbeat IPC: 0.295005 cumulative IPC: 0.295587 (Simulation time: 1 hr 57 min 29 sec) 
Heartbeat CPU 0 instructions: 240000000 cycles: 185930220 heartbeat IPC: 0.290386 cumulative IPC: 0.294269 (Simulation time: 2 hr 9 min 55 sec) 
Heartbeat CPU 0 instructions: 250000004 cycles: 221200897 heartbeat IPC: 0.283522 cumulative IPC: 0.292055 (Simulation time: 2 hr 22 min 9 sec) 
Heartbeat CPU 0 instructions: 260000000 cycles: 256161096 heartbeat IPC: 0.28604 cumulative IPC: 0.291035 (Simulation time: 2 hr 34 min 43 sec) 
Heartbeat CPU 0 instructions: 270000002 cycles: 290745271 heartbeat IPC: 0.28915 cumulative IPC: 0.290764 (Simulation time: 2 hr 47 min 4 sec) 
Heartbeat CPU 0 instructions: 280000001 cycles: 324372914 heartbeat IPC: 0.297375 cumulative IPC: 0.291575 (Simulation time: 2 hr 59 min 48 sec) 
Heartbeat CPU 0 instructions: 290000003 cycles: 356738688 heartbeat IPC: 0.308969 cumulative IPC: 0.29341 (Simulation time: 3 hr 11 min 25 sec) 
Heartbeat CPU 0 instructions: 300000001 cycles: 390775959 heartbeat IPC: 0.293796 cumulative IPC: 0.293448 (Simulation time: 3 hr 22 min 58 sec) 
Heartbeat CPU 0 instructions: 310000000 cycles: 424503643 heartbeat IPC: 0.296493 cumulative IPC: 0.293723 (Simulation time: 3 hr 33 min 11 sec) 
Heartbeat CPU 0 instructions: 320000001 cycles: 458596048 heartbeat IPC: 0.293321 cumulative IPC: 0.293689 (Simulation time: 3 hr 43 min 14 sec) 
Heartbeat CPU 0 instructions: 330000001 cycles: 493172783 heartbeat IPC: 0.289212 cumulative IPC: 0.29334 (Simulation time: 3 hr 51 min 47 sec) 
