41 41 41
Available num physical pages: 35184372088576
WARNING: physical memory size is smaller than virtual memory size

*** ChampSim Multicore Out-of-Order Simulator ***

Warmup Instructions: 200000000
Simulation Instructions: 200000000
Number of CPUs: 1
Page size: 4096

Basic BTB sets: 1024 ways: 8 indirect buffer size: 4096 RAS size: 64
cpu0_L1D Gaze NEW NEW prefetcher
Pattern Table index_len: 6
Off-chip DRAM Size: 4 GiB Channels: 1 Width: 64-bit Data Rate: 3200 MT/s
Heartbeat CPU 0 instructions: 10000002 cycles: 2500074 heartbeat IPC: 3.99989 cumulative IPC: 3.99989 (Simulation time: 0 hr 2 min 45 sec) 
Heartbeat CPU 0 instructions: 20000003 cycles: 5014441 heartbeat IPC: 3.97715 cumulative IPC: 3.98849 (Simulation time: 0 hr 5 min 50 sec) 
Heartbeat CPU 0 instructions: 30000003 cycles: 7514441 heartbeat IPC: 4 cumulative IPC: 3.99232 (Simulation time: 0 hr 8 min 57 sec) 
Heartbeat CPU 0 instructions: 40000001 cycles: 10018994 heartbeat IPC: 3.99273 cumulative IPC: 3.99242 (Simulation time: 0 hr 12 min 0 sec) 
Heartbeat CPU 0 instructions: 50000001 cycles: 12523547 heartbeat IPC: 3.99273 cumulative IPC: 3.99248 (Simulation time: 0 hr 14 min 58 sec) 
Heartbeat CPU 0 instructions: 60000001 cycles: 15023547 heartbeat IPC: 4 cumulative IPC: 3.99374 (Simulation time: 0 hr 17 min 41 sec) 
Heartbeat CPU 0 instructions: 70000001 cycles: 17523547 heartbeat IPC: 4 cumulative IPC: 3.99463 (Simulation time: 0 hr 20 min 8 sec) 
Heartbeat CPU 0 instructions: 80000002 cycles: 20809987 heartbeat IPC: 3.04281 cumulative IPC: 3.84431 (Simulation time: 0 hr 22 min 52 sec) 
Heartbeat CPU 0 instructions: 90000000 cycles: 23324937 heartbeat IPC: 3.97623 cumulative IPC: 3.85854 (Simulation time: 0 hr 25 min 48 sec) 
Heartbeat CPU 0 instructions: 100000000 cycles: 25824937 heartbeat IPC: 4 cumulative IPC: 3.87223 (Simulation time: 0 hr 28 min 56 sec) 
Heartbeat CPU 0 instructions: 110000000 cycles: 28324937 heartbeat IPC: 4 cumulative IPC: 3.88351 (Simulation time: 0 hr 32 min 6 sec) 
Heartbeat CPU 0 instructions: 120000000 cycles: 30829491 heartbeat IPC: 3.99273 cumulative IPC: 3.89238 (Simulation time: 0 hr 35 min 7 sec) 
Heartbeat CPU 0 instructions: 130000001 cycles: 33334043 heartbeat IPC: 3.99274 cumulative IPC: 3.89992 (Simulation time: 0 hr 37 min 58 sec) 
Heartbeat CPU 0 instructions: 140000001 cycles: 35834043 heartbeat IPC: 4 cumulative IPC: 3.9069 (Simulation time: 0 hr 40 min 33 sec) 
Heartbeat CPU 0 instructions: 150000003 cycles: 39120429 heartbeat IPC: 3.04286 cumulative IPC: 3.83432 (Simulation time: 0 hr 43 min 9 sec) 
Heartbeat CPU 0 instructions: 160000003 cycles: 41620429 heartbeat IPC: 4 cumulative IPC: 3.84427 (Simulation time: 0 hr 45 min 59 sec) 
Heartbeat CPU 0 instructions: 170000000 cycles: 44135158 heartbeat IPC: 3.97658 cumulative IPC: 3.85181 (Simulation time: 0 hr 49 min 10 sec) 
Heartbeat CPU 0 instructions: 180000000 cycles: 46635158 heartbeat IPC: 4 cumulative IPC: 3.85975 (Simulation time: 0 hr 52 min 20 sec) 
Heartbeat CPU 0 instructions: 190000003 cycles: 49139712 heartbeat IPC: 3.99273 cumulative IPC: 3.86653 (Simulation time: 0 hr 55 min 28 sec) 
Heartbeat CPU 0 instructions: 200000002 cycles: 51644264 heartbeat IPC: 3.99273 cumulative IPC: 3.87265 (Simulation time: 0 hr 58 min 23 sec) 
Max paddr 107M
Warmup finished CPU 0 instructions: 200000002 cycles: 51644265 cumulative IPC: 3.87265 (Simulation time: 0 hr 58 min 23 sec) 

Warmup complete CPU 0 instructions: 200000002 cycles: 51644265 (Simulation time: 0 hr 58 min 23 sec) 

Heartbeat CPU 0 instructions: 210000000 cycles: 60041209 heartbeat IPC: 1.19091 cumulative IPC: 1.19091 (Simulation time: 1 hr 2 min 26 sec) 
Heartbeat CPU 0 instructions: 220000000 cycles: 62813532 heartbeat IPC: 3.60709 cumulative IPC: 1.79063 (Simulation time: 1 hr 5 min 22 sec) 
Heartbeat CPU 0 instructions: 230000002 cycles: 70486446 heartbeat IPC: 1.30329 cumulative IPC: 1.59218 (Simulation time: 1 hr 9 min 38 sec) 
Heartbeat CPU 0 instructions: 240000000 cycles: 91604187 heartbeat IPC: 0.473536 cumulative IPC: 1.00101 (Simulation time: 1 hr 16 min 44 sec) 
Heartbeat CPU 0 instructions: 250000001 cycles: 113325915 heartbeat IPC: 0.460369 cumulative IPC: 0.810614 (Simulation time: 1 hr 23 min 51 sec) 
Heartbeat CPU 0 instructions: 260000001 cycles: 134935972 heartbeat IPC: 0.462748 cumulative IPC: 0.72036 (Simulation time: 1 hr 30 min 57 sec) 
Heartbeat CPU 0 instructions: 270000002 cycles: 154550982 heartbeat IPC: 0.509814 cumulative IPC: 0.680228 (Simulation time: 1 hr 37 min 9 sec) 
Heartbeat CPU 0 instructions: 280000003 cycles: 158736744 heartbeat IPC: 2.38906 cumulative IPC: 0.747018 (Simulation time: 1 hr 39 min 53 sec) 
Heartbeat CPU 0 instructions: 290000001 cycles: 170713838 heartbeat IPC: 0.834927 cumulative IPC: 0.755861 (Simulation time: 1 hr 45 min 46 sec) 
Heartbeat CPU 0 instructions: 300000001 cycles: 181935447 heartbeat IPC: 0.891138 cumulative IPC: 0.767512 (Simulation time: 1 hr 50 min 24 sec) 
Heartbeat CPU 0 instructions: 310000000 cycles: 205804260 heartbeat IPC: 0.418957 cumulative IPC: 0.713545 (Simulation time: 1 hr 57 min 40 sec) 
Heartbeat CPU 0 instructions: 320000001 cycles: 228863248 heartbeat IPC: 0.433671 cumulative IPC: 0.677129 (Simulation time: 2 hr 4 min 44 sec) 
Heartbeat CPU 0 instructions: 330000000 cycles: 252412298 heartbeat IPC: 0.424646 cumulative IPC: 0.647514 (Simulation time: 2 hr 11 min 54 sec) 
Heartbeat CPU 0 instructions: 340000001 cycles: 275228596 heartbeat IPC: 0.438284 cumulative IPC: 0.626162 (Simulation time: 2 hr 18 min 48 sec) 
Heartbeat CPU 0 instructions: 350000000 cycles: 284847761 heartbeat IPC: 1.0396 cumulative IPC: 0.643216 (Simulation time: 2 hr 22 min 45 sec) 
Heartbeat CPU 0 instructions: 360000000 cycles: 287353697 heartbeat IPC: 3.99053 cumulative IPC: 0.678802 (Simulation time: 2 hr 25 min 16 sec) 
Heartbeat CPU 0 instructions: 370000002 cycles: 294257027 heartbeat IPC: 1.44858 cumulative IPC: 0.700706 (Simulation time: 2 hr 29 min 18 sec) 
Heartbeat CPU 0 instructions: 380000000 cycles: 307626417 heartbeat IPC: 0.747978 cumulative IPC: 0.703175 (Simulation time: 2 hr 34 min 25 sec) 
Heartbeat CPU 0 instructions: 390000001 cycles: 323296870 heartbeat IPC: 0.638144 cumulative IPC: 0.699423 (Simulation time: 2 hr 40 min 3 sec) 
Heartbeat CPU 0 instructions: 400000001 cycles: 338922954 heartbeat IPC: 0.639956 cumulative IPC: 0.696189 (Simulation time: 2 hr 45 min 35 sec) 
Max paddr 109M
Simulation finished CPU 0 instructions: 200000000 cycles: 287278699 cumulative IPC: 0.696189 (Simulation time: 2 hr 45 min 35 sec) 

Simulation complete CPU 0 instructions: 200000000 cycles: 287278699 (Simulation time: 2 hr 45 min 35 sec) 


ChampSim completed all CPUs

[
  {
    "name": "Simulation",
    "traces": [
      "../traces/bfs-14.trace.gz"
    ],
    "roi": {
      "cores": [
        {
          "instructions": 200000000,
          "cycles": 287278699,
          "Avg ROB occupancy at mispredict": 7.86856, 
          "mispredict": {
            "BRANCH_DIRECT_JUMP": 1,
            "BRANCH_INDIRECT": 0,
            "BRANCH_CONDITIONAL": 6301099,
            "BRANCH_DIRECT_CALL": 8,
            "BRANCH_INDIRECT_CALL": 0,
            "BRANCH_RETURN": 14
          }
        }
      ],
      "cpu0_L1I": {
        "LOAD": {
          "hit":1413,
          "miss":2
        },
        "RFO": {
          "hit":0,
          "miss":0
        },
        "PREFETCH": {
          "hit":0,
          "miss":0
        },
        "WRITE": {
          "hit":0,
          "miss":0
        },
        "TRANSLATION": {
          "hit":0,
          "miss":0
        },
        "mshr full": 0,
        "prefetch requested": 0,
        "prefetch issued": 0,
        "prefetch filled": 0,
        "prefetch useful": 0,
        "prefetch useless": 0,
        "prefetch late": 0,
        "pf_useful_at_l2_from_l1":          0,
        "pf_late_at_l2_from_l1":          0,
        "pf_useless_at_l2_from_l1":          0,
        "pf_at_l2_to_l1":          0,
        "pf_fill_this_level":          0,
        "miss latency": 12.2188,
        "cache queues": {
          "PQ_ACCESS": 0,
          "PQ_FULL": 0,
          "PQ_TO_CACHE": 0,
          "PQ_MERGED": 0,
          "RQ_ACCESS": 1421,
          "RQ_MERGED": 6,
          "RQ_FULL": 0,
          "WQ_ACCESS": 0,
          "WQ_MERGED": 0,
          "WQ_FULL": 0
        }
      },
      "cpu0_ITLB": {
        "LOAD": {
          "hit":1347,
          "miss":0
        },
        "RFO": {
          "hit":0,
          "miss":0
        },
        "PREFETCH": {
          "hit":0,
          "miss":0
        },
        "WRITE": {
          "hit":0,
          "miss":0
        },
        "TRANSLATION": {
          "hit":0,
          "miss":0
        },
        "mshr full": 0,
        "prefetch requested": 0,
        "prefetch issued": 0,
        "prefetch filled": 0,
        "prefetch useful": 0,
        "prefetch useless": 0,
        "prefetch late": 0,
        "pf_useful_at_l2_from_l1":          0,
        "pf_late_at_l2_from_l1":          0,
        "pf_useless_at_l2_from_l1":          0,
        "pf_at_l2_to_l1":          0,
        "pf_fill_this_level":          0,
        "miss latency": null,
        "cache queues": {
          "PQ_ACCESS": 0,
          "PQ_FULL": 0,
          "PQ_TO_CACHE": 0,
          "PQ_MERGED": 0,
          "RQ_ACCESS": 1347,
          "RQ_MERGED": 0,
          "RQ_FULL": 0,
          "WQ_ACCESS": 0,
          "WQ_MERGED": 0,
          "WQ_FULL": 0
        }
      },
      "cpu0_DTLB": {
        "LOAD": {
          "hit":52091183,
          "miss":433565
        },
        "RFO": {
          "hit":0,
          "miss":0
        },
        "PREFETCH": {
          "hit":0,
          "miss":0
        },
        "WRITE": {
          "hit":0,
          "miss":0
        },
        "TRANSLATION": {
          "hit":0,
          "miss":0
        },
        "mshr full": 140095,
        "prefetch requested": 0,
        "prefetch issued": 0,
        "prefetch filled": 0,
        "prefetch useful": 0,
        "prefetch useless": 0,
        "prefetch late": 0,
        "pf_useful_at_l2_from_l1":          0,
        "pf_late_at_l2_from_l1":          0,
        "pf_useless_at_l2_from_l1":          0,
        "pf_at_l2_to_l1":          0,
        "pf_fill_this_level":          0,
        "miss latency": 1.82344,
        "cache queues": {
          "PQ_ACCESS": 0,
          "PQ_FULL": 0,
          "PQ_TO_CACHE": 0,
          "PQ_MERGED": 0,
          "RQ_ACCESS": 53345339,
          "RQ_MERGED": 0,
          "RQ_FULL": 820591,
          "WQ_ACCESS": 0,
          "WQ_MERGED": 0,
          "WQ_FULL": 0
        }
      },
      "cpu0_STLB": {
        "LOAD": {
          "hit":95202,
          "miss":164952
        },
        "RFO": {
          "hit":0,
          "miss":0
        },
        "PREFETCH": {
          "hit":0,
          "miss":0
        },
        "WRITE": {
          "hit":0,
          "miss":0
        },
        "TRANSLATION": {
          "hit":0,
          "miss":0
        },
        "mshr full": 0,
        "prefetch requested": 0,
        "prefetch issued": 0,
        "prefetch filled": 0,
        "prefetch useful": 0,
        "prefetch useless": 0,
        "prefetch late": 0,
        "pf_useful_at_l2_from_l1":          0,
        "pf_late_at_l2_from_l1":          0,
        "pf_useless_at_l2_from_l1":          0,
        "pf_at_l2_to_l1":          0,
        "pf_fill_this_level":          0,
        "miss latency": 3.94975,
        "cache queues": {
          "PQ_ACCESS": 0,
          "PQ_FULL": 0,
          "PQ_TO_CACHE": 0,
          "PQ_MERGED": 0,
          "RQ_ACCESS": 260154,
          "RQ_MERGED": 0,
          "RQ_FULL": 0,
          "WQ_ACCESS": 0,
          "WQ_MERGED": 0,
          "WQ_FULL": 0
        }
      },
      "cpu0_L1D": {
        "LOAD": {
          "hit":41629560,
          "miss":4804907
        },
        "RFO": {
          "hit":0,
          "miss":0
        },
        "PREFETCH": {
          "hit":447,
          "miss":2242094
        },
        "WRITE": {
          "hit":3468038,
          "miss":2988131
        },
        "TRANSLATION": {
          "hit":85840,
          "miss":79921
        },
        "mshr full": 8249320,
        "prefetch requested": 2242541,
        "prefetch issued": 2242541,
        "prefetch filled": 2214935,
        "prefetch useful": 1770008,
        "prefetch useless": 470645,
        "prefetch late": 25700,
        "pf_useful_at_l2_from_l1":          0,
        "pf_late_at_l2_from_l1":          0,
        "pf_useless_at_l2_from_l1":          0,
        "pf_at_l2_to_l1":          0,
        "pf_fill_this_level":    2214935,
        "miss latency": 8.98374,
        "cache queues": {
          "PQ_ACCESS": 2242541,
          "PQ_FULL": 0,
          "PQ_TO_CACHE": 2242541,
          "PQ_MERGED": 0,
          "RQ_ACCESS": 48927544,
          "RQ_MERGED": 1392067,
          "RQ_FULL": 1101004,
          "WQ_ACCESS": 6879743,
          "WQ_MERGED": 1071,
          "WQ_FULL": 422503
        }
      },
      "cpu0_L2C": {
        "LOAD": {
          "hit":2221713,
          "miss":1282771
        },
        "RFO": {
          "hit":9259,
          "miss":226395
        },
        "PREFETCH": {
          "hit":1864,
          "miss":2238771
        },
        "WRITE": {
          "hit":466303,
          "miss":0
        },
        "TRANSLATION": {
          "hit":52800,
          "miss":27121
        },
        "mshr full": 0,
        "prefetch requested": 0,
        "prefetch issued": 0,
        "prefetch filled": 2238771,
        "prefetch useful": 0,
        "prefetch useless": 0,
        "prefetch late": 0,
        "pf_useful_at_l2_from_l1":          0,
        "pf_late_at_l2_from_l1":          0,
        "pf_useless_at_l2_from_l1":          0,
        "pf_at_l2_to_l1":          0,
        "pf_fill_this_level":          0,
        "miss latency": 24.576,
        "cache queues": {
          "PQ_ACCESS": 2240635,
          "PQ_FULL": 0,
          "PQ_TO_CACHE": 2240635,
          "PQ_MERGED": 0,
          "RQ_ACCESS": 3820067,
          "RQ_MERGED": 0,
          "RQ_FULL": 0,
          "WQ_ACCESS": 466318,
          "WQ_MERGED": 0,
          "WQ_FULL": 0
        }
      },
      "LLC": {
        "LOAD": {
          "hit": [163260],
          "miss": [1119511]
        },
        "RFO": {
          "hit": [4655],
          "miss": [221740]
        },
        "PREFETCH": {
          "hit": [7941],
          "miss": [2230830]
        },
        "WRITE": {
          "hit": [421320],
          "miss": [0]
        },
        "TRANSLATION": {
          "hit": [1993],
          "miss": [25128]
        },
        "mshr full": 0,
        "prefetch requested": 0,
        "prefetch issued": 0,
        "prefetch filled": 2230830,
        "prefetch useful": 0,
        "prefetch useless": 0,
        "prefetch late": 0,
        "pf_useful_at_l2_from_l1":          0,
        "pf_late_at_l2_from_l1":          0,
        "pf_useless_at_l2_from_l1":          0,
        "pf_at_l2_to_l1":          0,
        "pf_fill_this_level":          0,
        "miss latency": 24.2562,
        "cache queues": {
          "PQ_ACCESS": 2238771,
          "PQ_FULL": 0,
          "PQ_TO_CACHE": 2238771,
          "PQ_MERGED": 0,
          "RQ_ACCESS": 1536287,
          "RQ_MERGED": 0,
          "RQ_FULL": 0,
          "WQ_ACCESS": 423161,
          "WQ_MERGED": 0,
          "WQ_FULL": 0
        }
      },
      "DRAM": [
        {
          "RQ ROW_BUFFER_HIT": 2610193,
          "RQ ROW_BUFFER_MISS": 986913,
          "PQ FULL": 0,
          "WQ ROW_BUFFER_HIT": 145135,
          "WQ ROW_BUFFER_MISS": 243237,
          "WQ FULL": 0,
          "AVG DBUS CONGESTED CYCLE": 3.95395
        }
      ]

    },
    "sim": {
      "cores": [
        {
          "instructions": 200000000,
          "cycles": 287278699,
          "Avg ROB occupancy at mispredict": 7.86856, 
          "mispredict": {
            "BRANCH_DIRECT_JUMP": 1,
            "BRANCH_INDIRECT": 0,
            "BRANCH_CONDITIONAL": 6301099,
            "BRANCH_DIRECT_CALL": 8,
            "BRANCH_INDIRECT_CALL": 0,
            "BRANCH_RETURN": 14
          }
        }
      ],
      "cpu0_L1I": {
        "LOAD": {
          "hit":1413,
          "miss":2
        },
        "RFO": {
          "hit":0,
          "miss":0
        },
        "PREFETCH": {
          "hit":0,
          "miss":0
        },
        "WRITE": {
          "hit":0,
          "miss":0
        },
        "TRANSLATION": {
          "hit":0,
          "miss":0
        },
        "mshr full": 0,
        "prefetch requested": 0,
        "prefetch issued": 0,
        "prefetch filled": 0,
        "prefetch useful": 0,
        "prefetch useless": 0,
        "prefetch late": 0,
        "pf_useful_at_l2_from_l1":          0,
        "pf_late_at_l2_from_l1":          0,
        "pf_useless_at_l2_from_l1":          0,
        "pf_at_l2_to_l1":          0,
        "pf_fill_this_level":          0,
        "miss latency": 12.2188,
        "cache queues": {
          "PQ_ACCESS": 0,
          "PQ_FULL": 0,
          "PQ_TO_CACHE": 0,
          "PQ_MERGED": 0,
          "RQ_ACCESS": 1421,
          "RQ_MERGED": 6,
          "RQ_FULL": 0,
          "WQ_ACCESS": 0,
          "WQ_MERGED": 0,
          "WQ_FULL": 0
        }
      },
      "cpu0_ITLB": {
        "LOAD": {
          "hit":1347,
          "miss":0
        },
        "RFO": {
          "hit":0,
          "miss":0
        },
        "PREFETCH": {
          "hit":0,
          "miss":0
        },
        "WRITE": {
          "hit":0,
          "miss":0
        },
        "TRANSLATION": {
          "hit":0,
          "miss":0
        },
        "mshr full": 0,
        "prefetch requested": 0,
        "prefetch issued": 0,
        "prefetch filled": 0,
        "prefetch useful": 0,
        "prefetch useless": 0,
        "prefetch late": 0,
        "pf_useful_at_l2_from_l1":          0,
        "pf_late_at_l2_from_l1":          0,
        "pf_useless_at_l2_from_l1":          0,
        "pf_at_l2_to_l1":          0,
        "pf_fill_this_level":          0,
        "miss latency": null,
        "cache queues": {
          "PQ_ACCESS": 0,
          "PQ_FULL": 0,
          "PQ_TO_CACHE": 0,
          "PQ_MERGED": 0,
          "RQ_ACCESS": 1347,
          "RQ_MERGED": 0,
          "RQ_FULL": 0,
          "WQ_ACCESS": 0,
          "WQ_MERGED": 0,
          "WQ_FULL": 0
        }
      },
      "cpu0_DTLB": {
        "LOAD": {
          "hit":52091183,
          "miss":433565
        },
        "RFO": {
          "hit":0,
          "miss":0
        },
        "PREFETCH": {
          "hit":0,
          "miss":0
        },
        "WRITE": {
          "hit":0,
          "miss":0
        },
        "TRANSLATION": {
          "hit":0,
          "miss":0
        },
        "mshr full": 140095,
        "prefetch requested": 0,
        "prefetch issued": 0,
        "prefetch filled": 0,
        "prefetch useful": 0,
        "prefetch useless": 0,
        "prefetch late": 0,
        "pf_useful_at_l2_from_l1":          0,
        "pf_late_at_l2_from_l1":          0,
        "pf_useless_at_l2_from_l1":          0,
        "pf_at_l2_to_l1":          0,
        "pf_fill_this_level":          0,
        "miss latency": 1.82344,
        "cache queues": {
          "PQ_ACCESS": 0,
          "PQ_FULL": 0,
          "PQ_TO_CACHE": 0,
          "PQ_MERGED": 0,
          "RQ_ACCESS": 53345339,
          "RQ_MERGED": 0,
          "RQ_FULL": 820591,
          "WQ_ACCESS": 0,
          "WQ_MERGED": 0,
          "WQ_FULL": 0
        }
      },
      "cpu0_STLB": {
        "LOAD": {
          "hit":95202,
          "miss":164952
        },
        "RFO": {
          "hit":0,
          "miss":0
        },
        "PREFETCH": {
          "hit":0,
          "miss":0
        },
        "WRITE": {
          "hit":0,
          "miss":0
        },
        "TRANSLATION": {
          "hit":0,
          "miss":0
        },
        "mshr full": 0,
        "prefetch requested": 0,
        "prefetch issued": 0,
        "prefetch filled": 0,
        "prefetch useful": 0,
        "prefetch useless": 0,
        "prefetch late": 0,
        "pf_useful_at_l2_from_l1":          0,
        "pf_late_at_l2_from_l1":          0,
        "pf_useless_at_l2_from_l1":          0,
        "pf_at_l2_to_l1":          0,
        "pf_fill_this_level":          0,
        "miss latency": 3.94975,
        "cache queues": {
          "PQ_ACCESS": 0,
          "PQ_FULL": 0,
          "PQ_TO_CACHE": 0,
          "PQ_MERGED": 0,
          "RQ_ACCESS": 260154,
          "RQ_MERGED": 0,
          "RQ_FULL": 0,
          "WQ_ACCESS": 0,
          "WQ_MERGED": 0,
          "WQ_FULL": 0
        }
      },
      "cpu0_L1D": {
        "LOAD": {
          "hit":41629560,
          "miss":4804907
        },
        "RFO": {
          "hit":0,
          "miss":0
        },
        "PREFETCH": {
          "hit":447,
          "miss":2242094
        },
        "WRITE": {
          "hit":3468038,
          "miss":2988131
        },
        "TRANSLATION": {
          "hit":85840,
          "miss":79921
        },
        "mshr full": 8249320,
        "prefetch requested": 2242541,
        "prefetch issued": 2242541,
        "prefetch filled": 2214935,
        "prefetch useful": 1770008,
        "prefetch useless": 470645,
        "prefetch late": 25700,
        "pf_useful_at_l2_from_l1":          0,
        "pf_late_at_l2_from_l1":          0,
        "pf_useless_at_l2_from_l1":          0,
        "pf_at_l2_to_l1":          0,
        "pf_fill_this_level":    2214935,
        "miss latency": 8.98374,
        "cache queues": {
          "PQ_ACCESS": 2242541,
          "PQ_FULL": 0,
          "PQ_TO_CACHE": 2242541,
          "PQ_MERGED": 0,
          "RQ_ACCESS": 48927544,
          "RQ_MERGED": 1392067,
          "RQ_FULL": 1101004,
          "WQ_ACCESS": 6879743,
          "WQ_MERGED": 1071,
          "WQ_FULL": 422503
        }
      },
      "cpu0_L2C": {
        "LOAD": {
          "hit":2221713,
          "miss":1282771
        },
        "RFO": {
          "hit":9259,
          "miss":226395
        },
        "PREFETCH": {
          "hit":1864,
          "miss":2238771
        },
        "WRITE": {
          "hit":466303,
          "miss":0
        },
        "TRANSLATION": {
          "hit":52800,
          "miss":27121
        },
        "mshr full": 0,
        "prefetch requested": 0,
        "prefetch issued": 0,
        "prefetch filled": 2238771,
        "prefetch useful": 0,
        "prefetch useless": 0,
        "prefetch late": 0,
        "pf_useful_at_l2_from_l1":          0,
        "pf_late_at_l2_from_l1":          0,
        "pf_useless_at_l2_from_l1":          0,
        "pf_at_l2_to_l1":          0,
        "pf_fill_this_level":          0,
        "miss latency": 24.576,
        "cache queues": {
          "PQ_ACCESS": 2240635,
          "PQ_FULL": 0,
          "PQ_TO_CACHE": 2240635,
          "PQ_MERGED": 0,
          "RQ_ACCESS": 3820067,
          "RQ_MERGED": 0,
          "RQ_FULL": 0,
          "WQ_ACCESS": 466318,
          "WQ_MERGED": 0,
          "WQ_FULL": 0
        }
      },
      "LLC": {
        "LOAD": {
          "hit": [163260],
          "miss": [1119511]
        },
        "RFO": {
          "hit": [4655],
          "miss": [221740]
        },
        "PREFETCH": {
          "hit": [7941],
          "miss": [2230830]
        },
        "WRITE": {
          "hit": [421320],
          "miss": [0]
        },
        "TRANSLATION": {
          "hit": [1993],
          "miss": [25128]
        },
        "mshr full": 0,
        "prefetch requested": 0,
        "prefetch issued": 0,
        "prefetch filled": 2230830,
        "prefetch useful": 0,
        "prefetch useless": 0,
        "prefetch late": 0,
        "pf_useful_at_l2_from_l1":          0,
        "pf_late_at_l2_from_l1":          0,
        "pf_useless_at_l2_from_l1":          0,
        "pf_at_l2_to_l1":          0,
        "pf_fill_this_level":          0,
        "miss latency": 24.2562,
        "cache queues": {
          "PQ_ACCESS": 2238771,
          "PQ_FULL": 0,
          "PQ_TO_CACHE": 2238771,
          "PQ_MERGED": 0,
          "RQ_ACCESS": 1536287,
          "RQ_MERGED": 0,
          "RQ_FULL": 0,
          "WQ_ACCESS": 423161,
          "WQ_MERGED": 0,
          "WQ_FULL": 0
        }
      },
      "DRAM": [
        {
          "RQ ROW_BUFFER_HIT": 2610193,
          "RQ ROW_BUFFER_MISS": 986913,
          "PQ FULL": 0,
          "WQ ROW_BUFFER_HIT": 145135,
          "WQ ROW_BUFFER_MISS": 243237,
          "WQ FULL": 0,
          "AVG DBUS CONGESTED CYCLE": 3.95395
        }
      ]

    }
  }
]
cpu0_ITLB
cpu0_DTLB
cpu0_STLB
Filter table begin
 ┌────────────────────┬────────────────────┬────────────────────┐
 | RegionNum          | Trigger            | PC                 |
 ├────────────────────┼────────────────────┼────────────────────┤
 | 0x0000000000003f2d | 0x0000000000000037 | 0x000055ab23ccd7d9 |
 ├────────────────────┼────────────────────┼────────────────────┤
 | 0x0000000000006da2 | 0x0000000000000000 | 0x000055ab23ccd7fd |
 ├────────────────────┼────────────────────┼────────────────────┤
 | 0x0000000000003c3a | 0x0000000000000008 | 0x000055ab23ccd7d9 |
 ├────────────────────┼────────────────────┼────────────────────┤
 | 0x0000000000003d6d | 0x000000000000003f | 0x000055ab23ccd7d9 |
 ├────────────────────┼────────────────────┼────────────────────┤
 | 0x0000000000003dae | 0x0000000000000005 | 0x000055ab23ccd7d9 |
 ├────────────────────┼────────────────────┼────────────────────┤
 | 0x0000000000006d9d | 0x0000000000000006 | 0x000055ab23ccd7d9 |
 ├────────────────────┼────────────────────┼────────────────────┤
 | 0x0000000000003f09 | 0x000000000000003a | 0x000055ab23ccd7d9 |
 ├────────────────────┼────────────────────┼────────────────────┤
 | 0x0000000000003b27 | 0x000000000000003f | 0x000055ab23ccd7d9 |
 ├────────────────────┼────────────────────┼────────────────────┤
 | 0x0000000000003d90 | 0x000000000000003f | 0x000055ab23ccd7d9 |
 ├────────────────────┼────────────────────┼────────────────────┤
 | 0x0000000000006da3 | 0x0000000000000006 | 0x000055ab23ccd7d9 |
 ├────────────────────┼────────────────────┼────────────────────┤
 | 0x0000000000006d8e | 0x0000000000000000 | 0x000055ab23ccd7fd |
 ├────────────────────┼────────────────────┼────────────────────┤
 | 0x00000000000033df | 0x0000000000000000 | 0x000055ab23ccd7d9 |
 ├────────────────────┼────────────────────┼────────────────────┤
 | 0x00000000000036d9 | 0x0000000000000000 | 0x000055ab23ccd7d9 |
 ├────────────────────┼────────────────────┼────────────────────┤
 | 0x00000000000037aa | 0x0000000000000014 | 0x000055ab23ccd7d9 |
 ├────────────────────┼────────────────────┼────────────────────┤
 | 0x0000000000003f34 | 0x000000000000003f | 0x000055ab23ccd7d9 |
 ├────────────────────┼────────────────────┼────────────────────┤
 | 0x0000000000006d9f | 0x0000000000000000 | 0x000055ab23ccd7fd |
 ├────────────────────┼────────────────────┼────────────────────┤
 | 0x00000000000036e5 | 0x0000000000000032 | 0x000055ab23ccd7d9 |
 ├────────────────────┼────────────────────┼────────────────────┤
 | 0x0000000000003c23 | 0x0000000000000022 | 0x000055ab23ccd7d9 |
 ├────────────────────┼────────────────────┼────────────────────┤
 | 0x0000000000006da0 | 0x0000000000000000 | 0x000055ab23ccd7fd |
 ├────────────────────┼────────────────────┼────────────────────┤
 | 0x0000000000003e1d | 0x000000000000000d | 0x000055ab23ccd7d9 |
 ├────────────────────┼────────────────────┼────────────────────┤
 | 0x0000000000003579 | 0x000000000000003b | 0x000055ab23ccd7d9 |
 ├────────────────────┼────────────────────┼────────────────────┤
 | 0x0000000000003b7f | 0x000000000000003e | 0x000055ab23ccd7d9 |
 ├────────────────────┼────────────────────┼────────────────────┤
 | 0x0000000000006d9e | 0x0000000000000000 | 0x000055ab23ccd7fd |
 ├────────────────────┼────────────────────┼────────────────────┤
 | 0x0000000000003857 | 0x0000000000000001 | 0x000055ab23ccd7d9 |
 ├────────────────────┼────────────────────┼────────────────────┤
 | 0x0000000000003868 | 0x000000000000003f | 0x000055ab23ccd7d9 |
 ├────────────────────┼────────────────────┼────────────────────┤
 | 0x00000000000038dc | 0x0000000000000006 | 0x000055ab23ccd7d9 |
 ├────────────────────┼────────────────────┼────────────────────┤
 | 0x0000000000003a1e | 0x000000000000003e | 0x000055ab23ccd7d9 |
 ├────────────────────┼────────────────────┼────────────────────┤
 | 0x00000000000033f0 | 0x000000000000003f | 0x000055ab23ccd7d9 |
 ├────────────────────┼────────────────────┼────────────────────┤
 | 0x0000000000006b6f | 0x0000000000000000 | 0x000055ab23ccd7fd |
 ├────────────────────┼────────────────────┼────────────────────┤
 | 0x0000000000003a10 | 0x000000000000003e | 0x000055ab23ccd7d9 |
 ├────────────────────┼────────────────────┼────────────────────┤
 | 0x0000000000003d28 | 0x000000000000003c | 0x000055ab23ccd7d9 |
 ├────────────────────┼────────────────────┼────────────────────┤
 | 0x00000000000032c5 | 0x000000000000003d | 0x000055ab23ccd7d9 |
 ├────────────────────┼────────────────────┼────────────────────┤
 | 0x00000000000036ab | 0x0000000000000000 | 0x000055ab23ccd7fd |
 ├────────────────────┼────────────────────┼────────────────────┤
 | 0x0000000000003777 | 0x000000000000003f | 0x000055ab23ccd7d9 |
 ├────────────────────┼────────────────────┼────────────────────┤
 | 0x0000000000003d29 | 0x0000000000000006 | 0x000055ab23ccd7d9 |
 ├────────────────────┼────────────────────┼────────────────────┤
 | 0x0000000000003b85 | 0x000000000000003f | 0x000055ab23ccd7d9 |
 ├────────────────────┼────────────────────┼────────────────────┤
 | 0x0000000000006d13 | 0x0000000000000001 | 0x000055ab23ccd7fd |
 ├────────────────────┼────────────────────┼────────────────────┤
 | 0x0000000000003f5f | 0x0000000000000028 | 0x000055ab23ccd7d9 |
 ├────────────────────┼────────────────────┼────────────────────┤
 | 0x0000000000003d9d | 0x000000000000003f | 0x000055ab23ccd7d9 |
 ├────────────────────┼────────────────────┼────────────────────┤
 | 0x0000000000003dc7 | 0x0000000000000000 | 0x000055ab23ccd7d9 |
 ├────────────────────┼────────────────────┼────────────────────┤
 | 0x0000000000003e01 | 0x000000000000003f | 0x000055ab23ccd7d9 |
 ├────────────────────┼────────────────────┼────────────────────┤
 | 0x00000000000035f6 | 0x000000000000003f | 0x000055ab23ccd7d9 |
 ├────────────────────┼────────────────────┼────────────────────┤
 | 0x0000000000006d9b | 0x0000000000000000 | 0x000055ab23ccd7fd |
 ├────────────────────┼────────────────────┼────────────────────┤
 | 0x0000000000003b4c | 0x0000000000000018 | 0x000055ab23ccd7d9 |
 ├────────────────────┼────────────────────┼────────────────────┤
 | 0x00000000000032dc | 0x0000000000000000 | 0x000055ab23ccd7d9 |
 ├────────────────────┼────────────────────┼────────────────────┤
 | 0x0000000000003454 | 0x000000000000003e | 0x000055ab23ccd7d9 |
 ├────────────────────┼────────────────────┼────────────────────┤
 | 0x00000000000034c4 | 0x000000000000003f | 0x000055ab23ccd7d9 |
 ├────────────────────┼────────────────────┼────────────────────┤
 | 0x00000000000039ab | 0x0000000000000008 | 0x000055ab23ccd7d9 |
 ├────────────────────┼────────────────────┼────────────────────┤
 | 0x000000000000364f | 0x000000000000000c | 0x000055ab23ccd7d9 |
 ├────────────────────┼────────────────────┼────────────────────┤
 | 0x0000000000003c4a | 0x0000000000000002 | 0x000055ab23ccd7d9 |
 ├────────────────────┼────────────────────┼────────────────────┤
 | 0x0000000000003e18 | 0x000000000000003f | 0x000055ab23ccd7d9 |
 ├────────────────────┼────────────────────┼────────────────────┤
 | 0x0000000000003aae | 0x0000000000000026 | 0x000055ab23ccd7d9 |
 ├────────────────────┼────────────────────┼────────────────────┤
 | 0x0000000000006d9a | 0x0000000000000001 | 0x000055ab23ccd7d9 |
 ├────────────────────┼────────────────────┼────────────────────┤
 | 0x0000000000006bfc | 0x000000000000002d | 0x000055ab23ccd7d9 |
 └────────────────────┴────────────────────┴────────────────────┘
Filter table end
Accumulation table begin
 ┌────────────────────┬────────────────────┬────────────────────┬────────────────────┬──────────────────────────────────────────────────────────────────────────────────────────────────────────────────────────────────┬─────────────────────────────────────────────────────────────────────────────────────────────────────────────────────────────────────────────────────────────────────────────────────────┐
 | RegionNum          | Trigger            | Second             | PC                 | Pattern                                                                                                                          | Order                                                                                                                                                                                   |
 ├────────────────────┼────────────────────┼────────────────────┼────────────────────┼──────────────────────────────────────────────────────────────────────────────────────────────────────────────────────────────────┼─────────────────────────────────────────────────────────────────────────────────────────────────────────────────────────────────────────────────────────────────────────────────────────┤
 | 0x0000000000000d80 | 0x0000000000000014 | 0x0000000000000016 | 0x000055ab23ccd6d7 | 1 1 1 1 1 1 1 1 1 1 1 1 1 1 1 1 1 1 1 1 1 1 1 1 1 1 1 1 1 1 1 1 1 1 1 1 1 1 1 1 1 1 1 1 1 1 1 1 1 1 1 1 1 1 1 1 1 1 1 1 1 1 1 1  | 8 9 10 11 56 41 12 13 6 14 15 43 38 34 36 7 61 16 17 63 1 18 2 42 52 48 19 20 62 44 21 22 23 60 49 24 3 55 25 26 57 27 45 53 28 59 54 39 35 29 50 30 64 58 31 32 4 40 33 46 37 5 47 51  |
 ├────────────────────┼────────────────────┼────────────────────┼────────────────────┼──────────────────────────────────────────────────────────────────────────────────────────────────────────────────────────────────┼─────────────────────────────────────────────────────────────────────────────────────────────────────────────────────────────────────────────────────────────────────────────────────────┤
 | 0x0000000000000d7c | 0x0000000000000000 | 0x000000000000002e | 0x000055ab23ccd6d7 | 1 1 1 1 1 1 1 1 1 1 1 1 1 1 1 1 1 1 1 1 1 1 1 1 1 1 1 1 1 1 1 1 1 1 1 1 1 1 1 1 1 1 1 1 1 1 1 1 1 1 1 1 1 1 1 1 1 1 1 1 1 1 1 1  | 1 55 47 3 34 32 22 50 6 54 53 27 59 7 64 40 8 41 37 31 35 23 9 20 10 45 4 61 44 51 46 26 62 57 33 39 11 28 43 52 21 12 49 13 48 14 2 15 5 16 60 30 17 18 58 19 36 63 29 42 24 38 56 25  |
 ├────────────────────┼────────────────────┼────────────────────┼────────────────────┼──────────────────────────────────────────────────────────────────────────────────────────────────────────────────────────────────┼─────────────────────────────────────────────────────────────────────────────────────────────────────────────────────────────────────────────────────────────────────────────────────────┤
 | 0x0000000000000129 | 0x0000000000000001 | 0x0000000000000006 | 0x00007fffabbf5e3c | 1 1 1 1 0 0 1 1 1 0 0 0 0 0 0 0 0 0 0 0 0 0 0 0 0 0 0 0 0 0 0 0 0 0 0 0 0 0 0 0 0 0 0 0 0 0 0 0 0 0 0 0 0 0 0 0 0 0 0 0 0 0 0 0  | 5 1 3 6 0 0 2 4 7 0 0 0 0 0 0 0 0 0 0 0 0 0 0 0 0 0 0 0 0 0 0 0 0 0 0 0 0 0 0 0 0 0 0 0 0 0 0 0 0 0 0 0 0 0 0 0 0 0 0 0 0 0 0 0                                                         |
 ├────────────────────┼────────────────────┼────────────────────┼────────────────────┼──────────────────────────────────────────────────────────────────────────────────────────────────────────────────────────────────┼─────────────────────────────────────────────────────────────────────────────────────────────────────────────────────────────────────────────────────────────────────────────────────────┤
 | 0x0000000000000d75 | 0x0000000000000002 | 0x000000000000001e | 0x000055ab23ccd80b | 1 1 1 1 1 1 1 1 1 1 1 1 1 1 1 1 1 1 1 1 1 1 1 1 1 1 1 1 1 1 1 1 1 1 1 1 1 1 1 1 1 1 1 1 1 1 1 1 1 1 1 1 1 1 1 1 1 1 1 1 1 1 1 1  | 23 22 1 56 20 7 14 60 41 27 8 59 16 33 9 44 42 54 25 24 28 38 47 5 30 43 49 34 50 40 2 10 11 35 31 15 51 4 21 64 61 12 52 55 36 17 53 18 37 3 62 57 46 19 63 48 45 13 32 39 29 6 58 26  |
 ├────────────────────┼────────────────────┼────────────────────┼────────────────────┼──────────────────────────────────────────────────────────────────────────────────────────────────────────────────────────────────┼─────────────────────────────────────────────────────────────────────────────────────────────────────────────────────────────────────────────────────────────────────────────────────────┤
 | 0x0000000000003f99 | 0x0000000000000005 | 0x0000000000000008 | 0x000055ab23ccd7d9 | 0 0 0 0 0 1 0 0 1 1 1 1 0 0 0 0 0 0 1 1 0 1 1 1 1 1 0 0 1 1 1 0 0 0 0 0 0 0 1 1 1 0 0 0 0 0 0 1 1 0 1 1 0 0 0 0 0 0 1 1 0 0 0 0  | 0 0 0 0 0 1 0 0 2 3 4 5 0 0 0 0 0 0 6 7 0 8 9 10 11 12 0 0 13 14 15 0 0 0 0 0 0 0 16 17 18 0 0 0 0 0 0 19 20 0 21 22 0 0 0 0 0 0 23 24 0 0 0 0                                          |
 ├────────────────────┼────────────────────┼────────────────────┼────────────────────┼──────────────────────────────────────────────────────────────────────────────────────────────────────────────────────────────────┼─────────────────────────────────────────────────────────────────────────────────────────────────────────────────────────────────────────────────────────────────────────────────────────┤
 | 0x0000000000003f90 | 0x0000000000000007 | 0x0000000000000008 | 0x000055ab23ccd7d9 | 0 0 0 0 0 0 0 1 1 0 0 0 0 0 0 0 1 1 1 1 0 0 0 0 0 0 1 1 1 0 0 0 0 0 0 0 0 1 1 0 0 1 1 0 0 0 0 0 0 1 1 0 1 1 1 0 0 0 0 0 0 0 0 0  | 0 0 0 0 0 0 0 1 2 0 0 0 0 0 0 0 3 4 5 6 0 0 0 0 0 0 7 8 9 0 0 0 0 0 0 0 0 10 11 0 0 12 13 0 0 0 0 0 0 14 15 0 16 17 18 0 0 0 0 0 0 0 0 0                                                |
 ├────────────────────┼────────────────────┼────────────────────┼────────────────────┼──────────────────────────────────────────────────────────────────────────────────────────────────────────────────────────────────┼─────────────────────────────────────────────────────────────────────────────────────────────────────────────────────────────────────────────────────────────────────────────────────────┤
 | 0x00000000000007ba | 0x0000000000000000 | 0x0000000000000001 | 0x000055ab23ccd7cf | 1 1 1 1 1 1 1 1 1 1 1 1 1 1 1 1 1 1 1 1 1 1 1 1 1 1 1 1 1 1 1 1 1 1 1 1 1 1 1 1 1 1 1 1 1 1 1 1 1 1 1 1 1 1 1 1 1 1 1 1 1 1 1 1  | 1 2 3 4 5 6 7 8 9 10 11 12 13 14 15 16 17 18 19 20 21 22 23 24 25 26 27 28 29 30 31 32 33 34 35 36 37 38 39 40 41 42 43 44 45 46 47 48 49 50 51 52 53 54 55 56 57 58 59 60 61 62 63 64  |
 ├────────────────────┼────────────────────┼────────────────────┼────────────────────┼──────────────────────────────────────────────────────────────────────────────────────────────────────────────────────────────────┼─────────────────────────────────────────────────────────────────────────────────────────────────────────────────────────────────────────────────────────────────────────────────────────┤
 | 0x0000000000000d89 | 0x0000000000000020 | 0x0000000000000027 | 0x000055ab23ccd6d7 | 1 1 1 1 1 1 1 1 1 1 1 1 1 1 1 1 1 1 1 1 1 1 1 1 1 1 1 1 1 1 1 1 1 1 1 1 1 1 1 1 1 1 1 1 1 1 1 1 1 1 1 1 1 1 1 1 1 1 1 1 1 1 1 1  | 35 3 4 5 55 6 51 7 46 8 36 9 38 62 49 60 58 31 59 10 11 44 53 12 37 32 64 33 13 14 43 15 1 16 56 61 17 40 18 2 19 48 20 52 21 63 54 22 45 23 24 41 42 50 25 57 26 27 34 28 47 39 29 30  |
 ├────────────────────┼────────────────────┼────────────────────┼────────────────────┼──────────────────────────────────────────────────────────────────────────────────────────────────────────────────────────────────┼─────────────────────────────────────────────────────────────────────────────────────────────────────────────────────────────────────────────────────────────────────────────────────────┤
 | 0x0000000000000d50 | 0x000000000000000f | 0x000000000000003c | 0x000055ab23ccd6d7 | 0 0 0 0 0 0 0 0 1 1 1 1 1 1 1 1 1 1 1 1 1 1 1 1 1 1 1 1 1 1 1 1 1 1 1 1 1 1 1 1 1 1 1 1 1 1 1 1 1 1 1 1 1 1 1 1 1 1 1 1 1 1 1 1  | 0 0 0 0 0 0 0 0 53 3 27 45 46 4 5 1 30 33 43 39 6 34 7 8 9 10 47 40 48 11 31 14 38 52 44 41 12 26 49 37 28 13 50 15 16 17 35 56 32 18 36 19 54 20 55 51 21 29 22 23 2 42 24 25          |
 ├────────────────────┼────────────────────┼────────────────────┼────────────────────┼──────────────────────────────────────────────────────────────────────────────────────────────────────────────────────────────────┼─────────────────────────────────────────────────────────────────────────────────────────────────────────────────────────────────────────────────────────────────────────────────────────┤
 | 0x0000000000000d74 | 0x0000000000000001 | 0x000000000000001b | 0x000055ab23ccd80b | 1 1 1 1 1 1 1 1 1 1 1 1 1 1 1 1 1 1 1 1 1 1 1 1 1 1 1 1 1 1 1 1 1 1 1 1 1 1 1 1 1 1 1 1 1 1 1 1 1 1 1 1 1 1 1 1 1 1 1 1 1 1 1 1  | 45 1 41 46 60 6 23 5 21 56 38 47 48 8 26 58 15 16 31 30 40 39 29 9 20 57 54 2 55 24 49 22 25 13 35 12 3 14 4 64 33 17 10 36 7 34 51 61 37 44 62 11 63 43 18 52 53 50 59 19 42 32 27 28  |
 ├────────────────────┼────────────────────┼────────────────────┼────────────────────┼──────────────────────────────────────────────────────────────────────────────────────────────────────────────────────────────────┼─────────────────────────────────────────────────────────────────────────────────────────────────────────────────────────────────────────────────────────────────────────────────────────┤
 | 0x0000000000000d81 | 0x000000000000001f | 0x0000000000000024 | 0x000055ab23ccd80b | 1 1 1 1 1 1 1 1 1 1 1 1 1 1 1 1 1 1 1 1 1 1 1 1 1 1 1 1 1 1 1 1 1 1 1 1 1 1 1 1 1 1 1 1 1 1 1 1 1 1 1 1 1 1 1 1 1 1 1 1 1 1 1 1  | 26 32 31 18 16 58 44 14 60 21 54 47 38 27 22 49 61 57 24 29 62 36 34 51 15 4 64 10 28 52 8 1 6 17 63 35 2 5 45 48 39 41 59 46 23 56 50 20 40 9 43 55 19 37 25 12 33 13 7 30 3 11 53 42  |
 ├────────────────────┼────────────────────┼────────────────────┼────────────────────┼──────────────────────────────────────────────────────────────────────────────────────────────────────────────────────────────────┼─────────────────────────────────────────────────────────────────────────────────────────────────────────────────────────────────────────────────────────────────────────────────────────┤
 | 0x0000000000003f98 | 0x0000000000000001 | 0x0000000000000002 | 0x000055ab23ccd7d9 | 0 1 1 1 0 0 0 0 0 0 0 0 0 0 0 0 0 0 0 0 0 0 0 0 0 0 0 1 0 0 0 1 1 1 1 1 1 1 0 0 0 0 0 0 1 1 1 1 0 1 1 1 1 0 0 0 0 0 1 1 1 0 0 0  | 0 1 2 3 0 0 0 0 0 0 0 0 0 0 0 0 0 0 0 0 0 0 0 0 0 0 0 4 0 0 0 5 6 7 8 9 10 11 0 0 0 0 0 0 12 13 14 15 0 16 17 18 19 0 0 0 0 0 20 21 22 0 0 0                                            |
 ├────────────────────┼────────────────────┼────────────────────┼────────────────────┼──────────────────────────────────────────────────────────────────────────────────────────────────────────────────────────────────┼─────────────────────────────────────────────────────────────────────────────────────────────────────────────────────────────────────────────────────────────────────────────────────────┤
 | 0x00000000000007bb | 0x0000000000000000 | 0x0000000000000001 | 0x000055ab23ccd7bd | 1 1 1 1 1 1 1 1 1 1 1 1 1 1 1 1 1 1 1 1 1 1 1 1 1 1 1 1 0 0 0 0 0 0 0 0 0 0 0 0 0 0 0 0 0 0 0 0 0 0 0 0 0 0 0 0 0 0 0 0 0 0 0 0  | 1 2 3 4 5 6 7 8 9 10 11 12 13 14 15 16 17 18 19 20 21 22 23 24 25 26 27 28 0 0 0 0 0 0 0 0 0 0 0 0 0 0 0 0 0 0 0 0 0 0 0 0 0 0 0 0 0 0 0 0 0 0 0 0                                      |
 ├────────────────────┼────────────────────┼────────────────────┼────────────────────┼──────────────────────────────────────────────────────────────────────────────────────────────────────────────────────────────────┼─────────────────────────────────────────────────────────────────────────────────────────────────────────────────────────────────────────────────────────────────────────────────────────┤
 | 0x0000000000000d7d | 0x000000000000003c | 0x0000000000000017 | 0x000055ab23ccd7e7 | 1 1 1 1 1 1 1 1 1 1 1 1 1 1 1 1 1 1 1 1 1 1 1 1 1 1 1 1 1 1 1 1 1 1 1 1 1 1 1 1 1 1 1 1 1 1 1 1 1 1 1 1 1 1 1 1 1 1 1 1 1 1 1 1  | 12 55 39 24 38 27 14 21 33 62 61 42 64 37 29 26 13 45 28 35 51 31 41 2 43 19 50 52 58 20 15 48 10 44 6 30 57 7 3 8 47 11 22 17 9 36 59 53 5 60 34 56 54 32 63 18 46 4 40 16 1 49 23 25  |
 ├────────────────────┼────────────────────┼────────────────────┼────────────────────┼──────────────────────────────────────────────────────────────────────────────────────────────────────────────────────────────────┼─────────────────────────────────────────────────────────────────────────────────────────────────────────────────────────────────────────────────────────────────────────────────────────┤
 | 0x0000000000003f91 | 0x0000000000000005 | 0x0000000000000006 | 0x000055ab23ccd7d9 | 0 0 0 0 0 1 1 0 0 1 1 1 1 1 1 1 1 1 0 0 1 1 0 0 0 0 0 0 0 0 0 0 0 0 0 0 0 0 0 0 0 0 0 0 0 0 0 0 0 0 0 0 0 0 0 0 0 0 0 0 0 0 0 0  | 0 0 0 0 0 1 2 0 0 3 4 5 6 7 8 9 10 11 0 0 12 13 0 0 0 0 0 0 0 0 0 0 0 0 0 0 0 0 0 0 0 0 0 0 0 0 0 0 0 0 0 0 0 0 0 0 0 0 0 0 0 0 0 0                                                     |
 ├────────────────────┼────────────────────┼────────────────────┼────────────────────┼──────────────────────────────────────────────────────────────────────────────────────────────────────────────────────────────────┼─────────────────────────────────────────────────────────────────────────────────────────────────────────────────────────────────────────────────────────────────────────────────────────┤
 | 0x0000000000000d88 | 0x0000000000000004 | 0x0000000000000020 | 0x000055ab23ccd80b | 1 1 1 1 1 1 1 1 1 1 1 1 1 1 1 1 1 1 1 1 1 1 1 1 1 1 1 1 1 1 1 1 1 1 1 1 1 1 1 1 1 1 1 1 1 1 1 1 1 1 1 1 1 1 1 1 1 1 1 1 1 1 1 1  | 36 4 59 13 1 17 6 26 5 7 56 52 55 50 20 42 41 39 25 23 49 37 63 32 16 38 33 14 45 8 12 30 2 54 53 43 31 9 19 10 29 24 64 51 35 15 60 44 34 18 27 47 57 48 11 62 3 21 46 58 40 28 22 61  |
 ├────────────────────┼────────────────────┼────────────────────┼────────────────────┼──────────────────────────────────────────────────────────────────────────────────────────────────────────────────────────────────┼─────────────────────────────────────────────────────────────────────────────────────────────────────────────────────────────────────────────────────────────────────────────────────────┤
 | 0x00000000000007b8 | 0x0000000000000000 | 0x0000000000000001 | 0x000055ab23ccd7bd | 1 1 1 1 1 1 1 1 1 1 1 1 1 1 1 1 1 1 1 1 1 1 1 1 1 1 1 1 1 1 1 1 1 1 1 1 1 1 1 1 1 1 1 1 1 1 1 1 1 1 1 1 1 1 1 1 1 1 1 1 1 1 1 1  | 1 2 3 4 5 6 7 8 9 10 11 12 13 14 15 16 17 18 19 20 21 22 23 24 25 26 27 28 29 30 31 32 33 34 35 36 37 38 39 40 41 42 43 44 45 46 47 48 49 50 51 52 53 54 55 56 57 58 59 60 61 62 63 64  |
 ├────────────────────┼────────────────────┼────────────────────┼────────────────────┼──────────────────────────────────────────────────────────────────────────────────────────────────────────────────────────────────┼─────────────────────────────────────────────────────────────────────────────────────────────────────────────────────────────────────────────────────────────────────────────────────────┤
 | 0x0000000000000d90 | 0x0000000000000021 | 0x000000000000000c | 0x000055ab23ccd80b | 1 1 1 1 1 1 1 1 1 1 1 1 1 1 1 1 1 1 1 1 1 1 1 1 1 1 1 1 1 1 1 1 1 1 1 1 1 1 1 1 1 1 1 1 1 1 1 1 1 1 1 1 1 1 1 1 1 1 1 1 1 1 1 1  | 64 63 41 48 24 9 11 52 49 29 3 5 2 32 31 61 12 46 36 44 35 37 8 23 56 15 26 7 62 4 33 40 18 1 25 16 54 43 20 60 14 45 59 22 17 27 39 30 6 38 57 28 21 42 47 51 10 34 53 19 13 50 55 58  |
 ├────────────────────┼────────────────────┼────────────────────┼────────────────────┼──────────────────────────────────────────────────────────────────────────────────────────────────────────────────────────────────┼─────────────────────────────────────────────────────────────────────────────────────────────────────────────────────────────────────────────────────────────────────────────────────────┤
 | 0x0000000000000d82 | 0x0000000000000009 | 0x000000000000002b | 0x000055ab23ccd6d7 | 1 1 1 1 1 1 1 1 1 1 1 1 1 1 1 1 1 1 1 1 1 1 1 1 1 1 1 1 1 1 1 1 1 1 1 1 1 1 1 1 1 1 1 1 1 1 1 1 1 1 1 1 1 1 1 1 1 1 1 1 1 1 1 1  | 46 58 4 5 6 49 61 7 8 1 57 9 51 53 32 10 11 31 38 34 50 48 12 35 13 41 60 62 52 14 44 28 39 56 15 16 17 18 29 19 20 21 22 2 64 36 63 47 43 23 59 24 37 33 42 3 45 30 25 40 26 54 55 27  |
 ├────────────────────┼────────────────────┼────────────────────┼────────────────────┼──────────────────────────────────────────────────────────────────────────────────────────────────────────────────────────────────┼─────────────────────────────────────────────────────────────────────────────────────────────────────────────────────────────────────────────────────────────────────────────────────────┤
 | 0x0000000000000d7e | 0x0000000000000003 | 0x0000000000000011 | 0x000055ab23ccd6d7 | 1 1 1 1 1 1 1 1 1 1 1 1 1 1 1 1 1 1 1 1 1 1 1 1 1 1 1 1 1 1 1 1 1 1 1 1 1 1 1 1 1 1 1 1 1 1 1 1 1 1 1 1 1 1 1 1 1 1 1 1 1 1 1 1  | 52 57 43 1 47 53 45 44 36 9 10 11 12 54 13 38 3 2 62 61 14 7 46 35 15 16 60 56 40 17 4 5 48 18 19 20 41 21 55 22 23 24 64 25 49 26 27 63 37 50 59 28 42 8 29 6 58 51 30 39 31 32 33 34  |
 ├────────────────────┼────────────────────┼────────────────────┼────────────────────┼──────────────────────────────────────────────────────────────────────────────────────────────────────────────────────────────────┼─────────────────────────────────────────────────────────────────────────────────────────────────────────────────────────────────────────────────────────────────────────────────────────┤
 | 0x0000000000000d77 | 0x0000000000000001 | 0x0000000000000033 | 0x000055ab23ccd6d7 | 1 1 1 1 1 1 1 1 1 1 1 1 1 1 1 1 1 1 1 1 1 1 1 1 1 1 1 1 1 1 1 1 1 1 1 1 1 1 1 1 1 1 1 1 1 1 1 1 1 1 1 1 1 1 1 1 1 1 1 1 1 1 1 1  | 57 1 3 60 51 4 32 5 6 33 52 7 54 8 9 42 30 10 11 61 48 53 50 43 40 47 55 12 31 64 13 14 15 39 59 44 49 16 45 17 18 19 36 46 58 20 21 22 63 23 62 2 24 25 34 41 26 37 38 56 27 28 29 35  |
 ├────────────────────┼────────────────────┼────────────────────┼────────────────────┼──────────────────────────────────────────────────────────────────────────────────────────────────────────────────────────────────┼─────────────────────────────────────────────────────────────────────────────────────────────────────────────────────────────────────────────────────────────────────────────────────────┤
 | 0x0000000000003f92 | 0x0000000000000024 | 0x0000000000000025 | 0x000055ab23ccd7d9 | 0 0 0 0 0 0 0 0 0 0 0 0 0 0 0 0 0 0 0 0 0 0 0 0 0 0 0 0 0 0 0 0 0 0 0 0 1 1 1 1 1 1 0 0 0 0 0 1 1 1 1 0 0 0 0 0 0 1 1 1 0 0 0 0  | 0 0 0 0 0 0 0 0 0 0 0 0 0 0 0 0 0 0 0 0 0 0 0 0 0 0 0 0 0 0 0 0 0 0 0 0 1 2 3 4 5 6 0 0 0 0 0 7 8 9 10 0 0 0 0 0 0 11 12 13 0 0 0 0                                                     |
 ├────────────────────┼────────────────────┼────────────────────┼────────────────────┼──────────────────────────────────────────────────────────────────────────────────────────────────────────────────────────────────┼─────────────────────────────────────────────────────────────────────────────────────────────────────────────────────────────────────────────────────────────────────────────────────────┤
 | 0x0000000000000d8b | 0x000000000000000c | 0x0000000000000025 | 0x000055ab23ccd80b | 1 1 1 1 1 1 1 1 1 1 1 1 1 1 1 1 1 1 1 1 1 1 1 1 1 1 1 1 1 1 1 1 1 1 1 1 1 1 1 1 1 1 1 1 1 1 1 1 1 1 1 1 1 1 1 1 1 1 1 1 1 1 1 1  | 23 17 7 57 12 9 52 40 63 31 29 32 1 49 8 10 35 51 62 21 46 6 33 24 37 53 44 5 30 26 47 13 43 34 15 60 19 2 28 4 50 20 55 45 36 64 25 48 27 56 61 58 42 54 18 22 14 38 3 16 41 11 59 39  |
 ├────────────────────┼────────────────────┼────────────────────┼────────────────────┼──────────────────────────────────────────────────────────────────────────────────────────────────────────────────────────────────┼─────────────────────────────────────────────────────────────────────────────────────────────────────────────────────────────────────────────────────────────────────────────────────────┤
 | 0x0000000000003f9b | 0x0000000000000008 | 0x0000000000000009 | 0x000055ab23ccd7d9 | 0 0 0 0 0 0 0 0 1 1 0 0 0 0 0 0 0 0 0 0 0 0 0 0 0 0 0 0 0 0 0 0 0 0 1 1 0 1 1 1 0 0 0 0 0 0 1 1 1 0 1 1 0 0 0 0 0 0 1 0 0 0 0 0  | 0 0 0 0 0 0 0 0 1 2 0 0 0 0 0 0 0 0 0 0 0 0 0 0 0 0 0 0 0 0 0 0 0 0 3 4 0 5 6 7 0 0 0 0 0 0 8 9 10 0 11 12 0 0 0 0 0 0 13 0 0 0 0 0                                                     |
 ├────────────────────┼────────────────────┼────────────────────┼────────────────────┼──────────────────────────────────────────────────────────────────────────────────────────────────────────────────────────────────┼─────────────────────────────────────────────────────────────────────────────────────────────────────────────────────────────────────────────────────────────────────────────────────────┤
 | 0x0000000000000d76 | 0x0000000000000009 | 0x0000000000000016 | 0x000055ab23ccd6d7 | 1 1 1 1 1 1 1 1 1 1 1 1 1 1 1 1 1 1 1 1 1 1 1 1 1 1 1 1 1 1 1 1 1 1 1 1 1 1 1 1 1 1 1 1 1 1 1 1 1 1 1 1 1 1 1 1 1 1 1 1 1 1 1 1  | 62 47 50 34 7 61 35 8 9 1 10 39 11 12 13 51 33 14 15 56 54 60 2 16 3 17 40 59 18 48 19 20 21 64 36 22 23 41 37 43 57 24 25 53 42 26 27 49 38 28 29 58 44 46 4 30 5 55 31 32 52 6 63 45  |
 ├────────────────────┼────────────────────┼────────────────────┼────────────────────┼──────────────────────────────────────────────────────────────────────────────────────────────────────────────────────────────────┼─────────────────────────────────────────────────────────────────────────────────────────────────────────────────────────────────────────────────────────────────────────────────────────┤
 | 0x0000000000000d8a | 0x0000000000000011 | 0x000000000000001e | 0x000055ab23ccd6d7 | 1 1 1 1 1 1 1 1 1 1 1 1 1 1 1 1 1 1 1 1 1 1 1 1 1 1 1 1 1 1 1 1 1 1 1 1 1 1 1 1 1 1 1 1 1 1 1 1 1 1 1 1 1 1 1 1 1 1 1 1 1 1 1 1  | 49 6 7 52 8 37 42 9 10 56 11 44 62 43 12 13 41 1 14 57 15 16 40 17 46 61 18 19 20 21 2 22 23 64 24 55 53 58 25 26 45 27 3 60 28 29 63 30 48 54 31 50 32 4 39 33 51 38 59 34 5 35 36 47  |
 ├────────────────────┼────────────────────┼────────────────────┼────────────────────┼──────────────────────────────────────────────────────────────────────────────────────────────────────────────────────────────────┼─────────────────────────────────────────────────────────────────────────────────────────────────────────────────────────────────────────────────────────────────────────────────────────┤
 | 0x0000000000003f93 | 0x0000000000000015 | 0x0000000000000016 | 0x000055ab23ccd7d9 | 0 0 0 0 0 0 0 0 0 0 0 0 0 0 0 0 0 0 0 0 0 1 1 1 1 0 0 0 0 0 0 1 0 0 0 0 0 0 0 0 0 0 0 0 1 1 1 1 0 0 0 0 0 0 0 0 0 0 0 0 0 0 0 0  | 0 0 0 0 0 0 0 0 0 0 0 0 0 0 0 0 0 0 0 0 0 1 2 3 4 0 0 0 0 0 0 5 0 0 0 0 0 0 0 0 0 0 0 0 6 7 8 9 0 0 0 0 0 0 0 0 0 0 0 0 0 0 0 0                                                         |
 ├────────────────────┼────────────────────┼────────────────────┼────────────────────┼──────────────────────────────────────────────────────────────────────────────────────────────────────────────────────────────────┼─────────────────────────────────────────────────────────────────────────────────────────────────────────────────────────────────────────────────────────────────────────────────────────┤
 | 0x0000000000000d7f | 0x0000000000000010 | 0x000000000000003b | 0x000055ab23ccd6d7 | 1 1 1 1 1 1 1 1 1 1 1 1 1 1 1 1 1 1 1 1 1 1 1 1 1 1 1 1 1 1 1 1 1 1 1 1 1 1 1 1 1 1 1 1 1 1 1 1 1 1 1 1 1 1 1 1 1 1 1 1 1 1 1 1  | 5 6 49 7 8 9 37 35 10 59 11 43 52 12 13 54 1 14 44 15 16 17 18 50 39 46 19 20 21 62 22 60 55 47 57 36 23 24 58 61 40 3 25 51 42 32 4 53 26 33 27 28 48 63 41 45 29 38 34 2 56 30 31 64  |
 ├────────────────────┼────────────────────┼────────────────────┼────────────────────┼──────────────────────────────────────────────────────────────────────────────────────────────────────────────────────────────────┼─────────────────────────────────────────────────────────────────────────────────────────────────────────────────────────────────────────────────────────────────────────────────────────┤
 | 0x0000000000003f9a | 0x0000000000000011 | 0x0000000000000012 | 0x000055ab23ccd7d9 | 0 0 0 0 0 0 0 0 0 0 0 0 0 0 0 0 0 1 1 0 0 0 0 0 0 0 0 0 0 0 0 0 0 0 0 0 0 0 0 0 0 1 1 0 1 1 0 1 0 0 0 0 0 0 0 0 0 0 0 0 0 0 0 0  | 0 0 0 0 0 0 0 0 0 0 0 0 0 0 0 0 0 1 2 0 0 0 0 0 0 0 0 0 0 0 0 0 0 0 0 0 0 0 0 0 0 3 4 0 5 6 0 7 0 0 0 0 0 0 0 0 0 0 0 0 0 0 0 0                                                         |
 ├────────────────────┼────────────────────┼────────────────────┼────────────────────┼──────────────────────────────────────────────────────────────────────────────────────────────────────────────────────────────────┼─────────────────────────────────────────────────────────────────────────────────────────────────────────────────────────────────────────────────────────────────────────────────────────┤
 | 0x0000000000000d83 | 0x000000000000000a | 0x000000000000002b | 0x000055ab23ccd6d7 | 1 1 1 1 1 1 1 1 1 1 1 1 1 1 1 1 1 1 1 1 1 1 1 1 1 1 1 1 1 1 1 1 1 1 1 1 1 1 1 1 1 1 1 1 1 1 1 1 1 1 1 1 1 1 1 1 1 1 1 1 1 1 1 1  | 4 5 6 49 64 48 7 42 8 61 1 51 9 56 10 11 12 43 37 13 44 14 15 16 17 18 19 20 46 40 45 21 22 23 24 25 38 50 59 53 26 27 47 2 28 58 29 57 63 60 30 31 32 54 33 52 34 55 62 3 35 41 36 39  |
 ├────────────────────┼────────────────────┼────────────────────┼────────────────────┼──────────────────────────────────────────────────────────────────────────────────────────────────────────────────────────────────┼─────────────────────────────────────────────────────────────────────────────────────────────────────────────────────────────────────────────────────────────────────────────────────────┤
 | 0x00000000000007b9 | 0x0000000000000000 | 0x0000000000000001 | 0x000055ab23ccd7cf | 1 1 1 1 1 1 1 1 1 1 1 1 1 1 1 1 1 1 1 1 1 1 1 1 1 1 1 1 1 1 1 1 1 1 1 1 1 1 1 1 1 1 1 1 1 1 1 1 1 1 1 1 1 1 1 1 1 1 1 1 1 1 1 1  | 1 2 3 4 5 6 7 8 9 10 11 12 13 14 15 16 17 18 19 20 21 22 23 24 25 26 27 28 29 30 31 32 33 34 35 36 37 38 39 40 41 42 43 44 45 46 47 48 49 50 51 52 53 54 55 56 57 58 59 60 61 62 63 64  |
 ├────────────────────┼────────────────────┼────────────────────┼────────────────────┼──────────────────────────────────────────────────────────────────────────────────────────────────────────────────────────────────┼─────────────────────────────────────────────────────────────────────────────────────────────────────────────────────────────────────────────────────────────────────────────────────────┤
 | 0x0000000000003f88 | 0x0000000000000016 | 0x0000000000000018 | 0x000055ab23ccd7d9 | 0 0 0 0 0 0 0 0 0 0 0 0 0 0 0 0 0 0 0 0 0 0 1 0 1 1 1 1 0 1 1 1 1 1 1 1 1 0 1 0 1 1 1 0 0 0 0 0 0 0 0 0 0 0 0 0 0 0 0 0 0 0 0 0  | 0 0 0 0 0 0 0 0 0 0 0 0 0 0 0 0 0 0 0 0 0 0 1 0 2 3 4 5 0 6 7 8 9 10 11 12 13 0 14 0 15 16 17 0 0 0 0 0 0 0 0 0 0 0 0 0 0 0 0 0 0 0 0 0                                                 |
 ├────────────────────┼────────────────────┼────────────────────┼────────────────────┼──────────────────────────────────────────────────────────────────────────────────────────────────────────────────────────────────┼─────────────────────────────────────────────────────────────────────────────────────────────────────────────────────────────────────────────────────────────────────────────────────────┤
 | 0x0000000000000d8d | 0x000000000000000e | 0x000000000000001d | 0x000055ab23ccd6d7 | 1 1 1 1 1 1 1 1 1 1 1 1 1 1 1 1 1 1 1 1 1 1 1 1 1 1 1 1 1 1 1 1 1 1 1 1 1 1 1 1 1 1 1 1 1 1 1 1 1 1 1 1 1 1 1 1 1 1 1 1 1 1 1 1  | 64 63 41 36 5 6 55 31 29 7 54 8 50 43 1 32 9 45 34 10 11 62 12 48 44 28 56 26 13 2 39 58 27 14 49 15 51 16 30 33 60 46 17 40 37 3 47 57 18 61 19 25 20 42 21 22 23 35 59 38 24 4 53 52  |
 ├────────────────────┼────────────────────┼────────────────────┼────────────────────┼──────────────────────────────────────────────────────────────────────────────────────────────────────────────────────────────────┼─────────────────────────────────────────────────────────────────────────────────────────────────────────────────────────────────────────────────────────────────────────────────────────┤
 | 0x0000000000003f8f | 0x0000000000000000 | 0x0000000000000002 | 0x000055ab23ccd7fd | 1 0 1 1 1 1 0 0 0 0 0 0 0 1 0 0 1 1 1 1 1 1 1 1 0 0 0 0 0 0 0 1 1 1 1 0 1 1 0 0 0 0 0 0 0 1 1 1 1 1 1 1 0 0 1 1 0 1 1 1 0 1 1 1  | 1 0 2 3 4 5 0 0 0 0 0 0 0 6 0 0 7 8 9 10 11 12 13 14 0 0 0 0 0 0 0 15 16 17 18 0 19 20 0 0 0 0 0 0 0 21 22 23 24 25 26 27 0 0 28 29 0 30 31 32 0 33 34 35                               |
 ├────────────────────┼────────────────────┼────────────────────┼────────────────────┼──────────────────────────────────────────────────────────────────────────────────────────────────────────────────────────────────┼─────────────────────────────────────────────────────────────────────────────────────────────────────────────────────────────────────────────────────────────────────────────────────────┤
 | 0x0000000000003f94 | 0x0000000000000000 | 0x0000000000000002 | 0x000055ab23ccd7d9 | 1 0 1 1 1 1 1 1 1 1 1 1 0 1 1 1 0 0 0 0 0 0 0 0 0 0 0 0 0 0 0 0 0 0 0 0 0 0 0 0 0 0 0 0 0 0 0 0 0 0 0 0 0 0 0 0 0 0 0 0 0 0 0 0  | 1 0 2 3 4 5 6 7 8 9 10 11 0 12 13 14 0 0 0 0 0 0 0 0 0 0 0 0 0 0 0 0 0 0 0 0 0 0 0 0 0 0 0 0 0 0 0 0 0 0 0 0 0 0 0 0 0 0 0 0 0 0 0 0                                                    |
 ├────────────────────┼────────────────────┼────────────────────┼────────────────────┼──────────────────────────────────────────────────────────────────────────────────────────────────────────────────────────────────┼─────────────────────────────────────────────────────────────────────────────────────────────────────────────────────────────────────────────────────────────────────────────────────────┤
 | 0x0000000000000d78 | 0x0000000000000022 | 0x0000000000000026 | 0x000055ab23ccd6d7 | 1 1 1 1 1 1 1 1 1 1 1 1 1 1 1 1 1 1 1 1 1 1 1 1 1 1 1 1 1 1 1 1 1 1 1 1 1 1 1 1 1 1 1 1 1 1 1 1 1 1 1 1 1 1 1 1 1 1 1 1 1 1 1 1  | 5 6 49 7 50 8 9 10 58 61 11 12 64 53 13 14 51 15 16 17 47 63 18 19 20 57 54 21 22 52 48 46 23 24 1 25 44 26 2 27 28 29 30 31 32 45 33 34 35 55 59 36 37 38 39 3 40 4 41 62 42 43 56 60  |
 ├────────────────────┼────────────────────┼────────────────────┼────────────────────┼──────────────────────────────────────────────────────────────────────────────────────────────────────────────────────────────────┼─────────────────────────────────────────────────────────────────────────────────────────────────────────────────────────────────────────────────────────────────────────────────────────┤
 | 0x0000000000003f86 | 0x0000000000000000 | 0x0000000000000002 | 0x000055ab23ccd7fd | 1 0 1 1 1 0 0 0 0 0 0 0 0 0 0 0 0 0 0 0 0 0 0 0 0 0 0 0 0 0 0 0 0 0 0 0 0 0 0 0 0 0 0 0 0 0 0 0 0 0 0 0 0 0 0 0 0 0 0 0 0 0 0 0  | 1 0 2 3 4 0 0 0 0 0 0 0 0 0 0 0 0 0 0 0 0 0 0 0 0 0 0 0 0 0 0 0 0 0 0 0 0 0 0 0 0 0 0 0 0 0 0 0 0 0 0 0 0 0 0 0 0 0 0 0 0 0 0 0                                                         |
 ├────────────────────┼────────────────────┼────────────────────┼────────────────────┼──────────────────────────────────────────────────────────────────────────────────────────────────────────────────────────────────┼─────────────────────────────────────────────────────────────────────────────────────────────────────────────────────────────────────────────────────────────────────────────────────────┤
 | 0x0000000000003f9d | 0x0000000000000000 | 0x0000000000000001 | 0x000055ab23ccd7d9 | 1 1 1 1 1 1 0 1 1 0 1 1 1 1 1 1 0 0 0 0 0 0 1 1 1 0 0 0 0 0 0 0 1 1 0 1 0 0 1 1 1 0 0 0 0 0 0 0 1 0 0 0 0 0 0 0 0 0 0 0 0 0 0 0  | 1 2 3 4 5 6 0 7 8 0 9 10 11 12 13 14 0 0 0 0 0 0 15 16 17 0 0 0 0 0 0 0 18 19 0 20 0 0 21 22 23 0 0 0 0 0 0 0 24 0 0 0 0 0 0 0 0 0 0 0 0 0 0 0                                          |
 ├────────────────────┼────────────────────┼────────────────────┼────────────────────┼──────────────────────────────────────────────────────────────────────────────────────────────────────────────────────────────────┼─────────────────────────────────────────────────────────────────────────────────────────────────────────────────────────────────────────────────────────────────────────────────────────┤
 | 0x0000000000000d71 | 0x0000000000000006 | 0x0000000000000005 | 0x000055ab23ccd80b | 1 1 1 1 1 1 1 0 1 0 0 0 0 0 0 0 0 0 0 0 0 0 0 0 0 0 0 0 0 0 0 0 0 0 0 0 0 0 0 0 0 0 0 0 0 0 0 0 0 0 0 0 0 0 0 0 0 0 0 0 0 0 0 0  | 3 6 4 7 8 2 1 0 5 0 0 0 0 0 0 0 0 0 0 0 0 0 0 0 0 0 0 0 0 0 0 0 0 0 0 0 0 0 0 0 0 0 0 0 0 0 0 0 0 0 0 0 0 0 0 0 0 0 0 0 0 0 0 0                                                         |
 ├────────────────────┼────────────────────┼────────────────────┼────────────────────┼──────────────────────────────────────────────────────────────────────────────────────────────────────────────────────────────────┼─────────────────────────────────────────────────────────────────────────────────────────────────────────────────────────────────────────────────────────────────────────────────────────┤
 | 0x0000000000000d84 | 0x0000000000000002 | 0x0000000000000003 | 0x000055ab23ccd6d7 | 1 1 1 1 1 1 1 1 1 1 1 1 1 1 1 1 1 1 1 1 1 1 1 1 1 1 1 1 1 1 1 1 1 1 1 1 1 1 1 1 1 1 1 1 1 1 1 1 1 1 1 1 1 1 1 1 1 1 1 1 1 1 1 1  | 42 46 1 2 63 3 4 5 58 36 6 28 7 59 8 9 10 27 11 47 31 55 60 30 33 12 38 13 45 62 44 14 15 39 64 52 16 41 50 17 48 18 29 34 40 35 19 57 20 43 61 21 22 23 24 56 37 32 54 51 25 49 53 26  |
 ├────────────────────┼────────────────────┼────────────────────┼────────────────────┼──────────────────────────────────────────────────────────────────────────────────────────────────────────────────────────────────┼─────────────────────────────────────────────────────────────────────────────────────────────────────────────────────────────────────────────────────────────────────────────────────────┤
 | 0x0000000000003f87 | 0x0000000000000013 | 0x0000000000000015 | 0x000055ab23ccd7d9 | 0 0 0 0 0 0 0 0 0 0 0 0 0 0 0 0 0 0 0 1 0 1 1 1 0 0 1 1 1 1 1 1 1 1 0 0 0 0 0 0 0 0 0 0 0 0 0 0 0 0 0 0 0 0 0 0 0 0 0 0 0 0 0 0  | 0 0 0 0 0 0 0 0 0 0 0 0 0 0 0 0 0 0 0 1 0 2 3 4 0 0 5 6 7 8 9 10 11 12 0 0 0 0 0 0 0 0 0 0 0 0 0 0 0 0 0 0 0 0 0 0 0 0 0 0 0 0 0 0                                                      |
 ├────────────────────┼────────────────────┼────────────────────┼────────────────────┼──────────────────────────────────────────────────────────────────────────────────────────────────────────────────────────────────┼─────────────────────────────────────────────────────────────────────────────────────────────────────────────────────────────────────────────────────────────────────────────────────────┤
 | 0x0000000000003f8e | 0x0000000000000006 | 0x0000000000000008 | 0x000055ab23ccd7d9 | 0 0 0 0 0 0 1 0 1 0 1 1 0 0 1 1 0 1 1 1 1 1 1 0 1 1 1 1 0 0 0 0 0 0 1 1 1 1 0 0 0 0 0 0 0 0 0 0 0 0 0 0 0 0 0 0 0 0 0 0 0 0 1 1  | 0 0 0 0 0 0 1 0 2 0 3 4 0 0 5 6 0 7 8 9 10 11 12 0 13 14 15 16 0 0 0 0 0 0 17 18 19 20 0 0 0 0 0 0 0 0 0 0 0 0 0 0 0 0 0 0 0 0 0 0 0 0 21 22                                            |
 ├────────────────────┼────────────────────┼────────────────────┼────────────────────┼──────────────────────────────────────────────────────────────────────────────────────────────────────────────────────────────────┼─────────────────────────────────────────────────────────────────────────────────────────────────────────────────────────────────────────────────────────────────────────────────────────┤
 | 0x0000000000006af3 | 0x000000000000000d | 0x000000000000000e | 0x000055ab23ccd7d9 | 0 0 0 0 0 0 0 0 0 0 0 0 0 1 1 0 0 0 0 0 0 0 0 0 0 0 0 0 0 0 0 0 0 0 0 0 0 0 0 0 0 0 0 0 0 0 0 0 0 0 0 0 0 0 0 0 0 0 0 0 0 0 0 0  | 0 0 0 0 0 0 0 0 0 0 0 0 0 1 2 0 0 0 0 0 0 0 0 0 0 0 0 0 0 0 0 0 0 0 0 0 0 0 0 0 0 0 0 0 0 0 0 0 0 0 0 0 0 0 0 0 0 0 0 0 0 0 0 0                                                         |
 ├────────────────────┼────────────────────┼────────────────────┼────────────────────┼──────────────────────────────────────────────────────────────────────────────────────────────────────────────────────────────────┼─────────────────────────────────────────────────────────────────────────────────────────────────────────────────────────────────────────────────────────────────────────────────────────┤
 | 0x0000000000003f95 | 0x0000000000000020 | 0x0000000000000023 | 0x000055ab23ccd7d9 | 0 0 0 0 0 0 0 0 0 0 0 0 0 0 0 0 0 0 0 0 0 0 0 0 0 0 0 0 0 0 0 0 1 0 0 1 1 1 0 0 0 0 0 0 1 1 0 0 1 1 1 1 0 1 1 0 1 1 1 0 0 0 0 0  | 0 0 0 0 0 0 0 0 0 0 0 0 0 0 0 0 0 0 0 0 0 0 0 0 0 0 0 0 0 0 0 0 1 0 0 2 3 4 0 0 0 0 0 0 5 6 0 0 7 8 9 10 0 11 12 0 13 14 15 0 0 0 0 0                                                   |
 ├────────────────────┼────────────────────┼────────────────────┼────────────────────┼──────────────────────────────────────────────────────────────────────────────────────────────────────────────────────────────────┼─────────────────────────────────────────────────────────────────────────────────────────────────────────────────────────────────────────────────────────────────────────────────────────┤
 | 0x0000000000000d85 | 0x0000000000000018 | 0x0000000000000025 | 0x000055ab23ccd6d7 | 1 1 1 1 1 1 1 1 1 1 1 1 1 1 1 1 1 1 1 1 1 1 1 1 1 1 1 1 1 1 1 1 1 1 1 1 1 1 1 1 1 1 1 1 1 1 1 1 1 1 1 1 1 1 1 1 1 1 1 1 1 1 1 1  | 39 4 5 42 6 45 35 47 7 8 9 37 10 11 43 50 56 57 51 32 33 63 12 13 1 34 61 48 40 46 28 52 54 49 29 14 15 2 55 16 17 60 38 18 41 3 30 53 19 36 20 21 27 44 22 58 23 59 24 64 62 25 31 26  |
 ├────────────────────┼────────────────────┼────────────────────┼────────────────────┼──────────────────────────────────────────────────────────────────────────────────────────────────────────────────────────────────┼─────────────────────────────────────────────────────────────────────────────────────────────────────────────────────────────────────────────────────────────────────────────────────────┤
 | 0x0000000000000d79 | 0x000000000000000e | 0x0000000000000000 | 0x000055ab23ccd6d7 | 1 1 1 1 1 1 1 1 1 1 1 1 1 1 1 1 1 1 1 1 1 1 1 1 1 1 1 1 1 1 1 1 1 1 1 1 1 1 1 1 1 1 1 1 1 1 1 1 1 1 1 1 1 1 1 1 1 1 1 1 1 1 1 1  | 2 3 4 5 62 52 35 50 53 6 37 7 45 8 1 9 10 11 40 12 13 14 34 38 15 16 57 17 18 54 19 61 47 42 20 56 21 22 39 23 41 48 24 25 26 59 60 49 27 28 29 30 36 63 64 44 58 33 51 46 31 55 32 43  |
 ├────────────────────┼────────────────────┼────────────────────┼────────────────────┼──────────────────────────────────────────────────────────────────────────────────────────────────────────────────────────────────┼─────────────────────────────────────────────────────────────────────────────────────────────────────────────────────────────────────────────────────────────────────────────────────────┤
 | 0x0000000000000d8c | 0x000000000000002d | 0x0000000000000036 | 0x000055ab23ccd6d7 | 1 1 1 1 1 1 1 1 1 1 1 1 1 1 1 1 1 1 1 1 1 1 1 1 1 1 1 1 1 1 1 1 1 1 1 1 1 1 1 1 1 1 1 1 1 1 1 1 1 1 1 1 1 1 1 1 1 1 1 1 1 1 1 1  | 3 55 44 4 31 5 54 58 37 51 64 60 6 7 8 36 9 48 10 11 47 12 61 13 38 14 34 39 53 56 46 15 35 16 17 18 19 20 21 30 32 42 59 63 52 1 22 57 43 50 45 49 23 24 2 62 25 33 26 27 41 28 29 40  |
 ├────────────────────┼────────────────────┼────────────────────┼────────────────────┼──────────────────────────────────────────────────────────────────────────────────────────────────────────────────────────────────┼─────────────────────────────────────────────────────────────────────────────────────────────────────────────────────────────────────────────────────────────────────────────────────────┤
 | 0x0000000000003f9c | 0x0000000000000014 | 0x0000000000000017 | 0x000055ab23ccd7d9 | 0 0 0 0 0 0 0 0 0 0 0 0 0 0 0 0 0 0 0 0 1 0 0 1 1 0 1 0 0 1 1 1 1 1 0 1 1 1 1 0 0 0 0 0 0 0 1 1 0 1 1 1 0 0 1 1 0 1 1 1 1 1 1 1  | 0 0 0 0 0 0 0 0 0 0 0 0 0 0 0 0 0 0 0 0 1 0 0 2 3 0 4 0 0 5 6 7 8 9 0 10 11 12 13 0 0 0 0 0 0 0 14 15 0 16 17 18 0 0 19 20 0 21 22 23 24 25 26 27                                       |
 ├────────────────────┼────────────────────┼────────────────────┼────────────────────┼──────────────────────────────────────────────────────────────────────────────────────────────────────────────────────────────────┼─────────────────────────────────────────────────────────────────────────────────────────────────────────────────────────────────────────────────────────────────────────────────────────┤
 | 0x0000000000000d86 | 0x000000000000002f | 0x0000000000000036 | 0x000055ab23ccd6d7 | 1 1 1 1 1 1 1 1 1 1 1 1 1 1 1 1 1 1 1 1 1 1 1 1 1 1 1 1 1 1 1 1 1 1 1 1 1 1 1 1 1 1 1 1 1 1 1 1 1 1 1 1 1 1 1 1 1 1 1 1 1 1 1 1  | 3 4 5 57 38 6 36 7 8 32 9 39 10 50 41 35 11 42 64 54 12 61 53 49 60 13 14 15 51 16 17 46 18 19 58 62 56 37 34 20 48 21 22 47 23 52 55 1 24 40 25 44 59 26 2 27 33 28 29 45 30 43 63 31  |
 ├────────────────────┼────────────────────┼────────────────────┼────────────────────┼──────────────────────────────────────────────────────────────────────────────────────────────────────────────────────────────────┼─────────────────────────────────────────────────────────────────────────────────────────────────────────────────────────────────────────────────────────────────────────────────────────┤
 | 0x0000000000000d8f | 0x0000000000000018 | 0x0000000000000028 | 0x000055ab23ccd6d7 | 1 1 1 1 1 1 1 1 1 1 1 1 1 1 1 1 1 1 1 1 1 1 1 1 1 1 1 1 1 1 1 1 1 1 1 1 1 1 1 1 1 1 1 1 1 1 1 1 1 1 1 1 1 1 1 1 1 1 1 1 1 1 1 1  | 6 7 8 9 10 52 11 12 13 49 53 45 14 15 16 17 18 19 20 54 21 22 42 23 1 24 25 47 26 56 27 60 58 28 64 29 61 30 31 32 2 33 34 57 35 3 50 44 43 36 4 59 63 62 37 38 51 39 5 40 55 48 41 46  |
 ├────────────────────┼────────────────────┼────────────────────┼────────────────────┼──────────────────────────────────────────────────────────────────────────────────────────────────────────────────────────────────┼─────────────────────────────────────────────────────────────────────────────────────────────────────────────────────────────────────────────────────────────────────────────────────────┤
 | 0x0000000000000d61 | 0x0000000000000000 | 0x0000000000000001 | 0x000055ab23ccd838 | 1 1 1 1 1 1 1 1 1 1 1 1 1 1 1 1 1 1 0 0 0 0 0 0 0 0 0 0 0 0 0 0 0 0 0 0 0 0 0 0 0 0 0 0 0 0 0 0 0 0 0 0 0 0 0 0 0 0 0 0 0 0 0 0  | 1 2 3 4 5 6 7 8 9 10 11 12 13 14 15 16 17 18 0 0 0 0 0 0 0 0 0 0 0 0 0 0 0 0 0 0 0 0 0 0 0 0 0 0 0 0 0 0 0 0 0 0 0 0 0 0 0 0 0 0 0 0 0 0                                                |
 ├────────────────────┼────────────────────┼────────────────────┼────────────────────┼──────────────────────────────────────────────────────────────────────────────────────────────────────────────────────────────────┼─────────────────────────────────────────────────────────────────────────────────────────────────────────────────────────────────────────────────────────────────────────────────────────┤
 | 0x0000000000003f96 | 0x0000000000000014 | 0x0000000000000015 | 0x000055ab23ccd7d9 | 0 0 0 0 0 0 0 0 0 0 0 0 0 0 0 0 0 0 0 0 1 1 0 0 0 0 0 0 0 1 1 0 1 0 0 1 1 0 0 0 0 0 0 0 0 1 0 0 1 1 1 1 1 0 0 0 0 0 0 1 0 0 1 1  | 0 0 0 0 0 0 0 0 0 0 0 0 0 0 0 0 0 0 0 0 1 2 0 0 0 0 0 0 0 3 4 0 5 0 0 6 7 0 0 0 0 0 0 0 0 8 0 0 9 10 11 12 13 0 0 0 0 0 0 14 0 0 15 16                                                  |
 ├────────────────────┼────────────────────┼────────────────────┼────────────────────┼──────────────────────────────────────────────────────────────────────────────────────────────────────────────────────────────────┼─────────────────────────────────────────────────────────────────────────────────────────────────────────────────────────────────────────────────────────────────────────────────────────┤
 | 0x0000000000000d7a | 0x0000000000000032 | 0x0000000000000002 | 0x000055ab23ccd6d7 | 1 1 1 1 1 1 1 1 1 1 1 1 1 1 1 1 1 1 1 1 1 1 1 1 1 1 1 1 1 1 1 1 1 1 1 1 1 1 1 1 1 1 1 1 1 1 1 1 1 1 1 1 1 1 1 1 1 1 1 1 1 1 1 1  | 57 59 2 49 43 3 39 41 47 4 5 6 7 8 9 10 40 11 56 36 45 12 13 14 42 60 15 50 16 17 18 53 63 19 20 21 58 61 62 22 23 24 54 37 48 25 55 26 44 34 1 27 38 51 46 28 52 29 30 31 35 64 32 33  |
 ├────────────────────┼────────────────────┼────────────────────┼────────────────────┼──────────────────────────────────────────────────────────────────────────────────────────────────────────────────────────────────┼─────────────────────────────────────────────────────────────────────────────────────────────────────────────────────────────────────────────────────────────────────────────────────────┤
 | 0x0000000000000d73 | 0x0000000000000002 | 0x0000000000000004 | 0x000055ab23ccd6d7 | 1 1 1 1 1 1 1 1 1 1 1 1 1 1 1 1 1 1 1 1 1 1 1 1 1 1 1 1 1 1 1 1 1 1 1 1 1 1 1 1 1 1 1 1 1 1 1 1 1 1 1 1 1 1 1 1 1 1 1 1 1 1 1 1  | 33 45 1 40 2 53 3 60 43 4 8 37 32 46 9 59 10 51 58 11 52 12 57 13 5 14 39 15 16 17 6 18 19 20 42 21 63 22 47 34 48 23 35 64 56 50 24 25 26 62 49 7 27 55 28 44 29 61 36 30 31 41 38 54  |
 ├────────────────────┼────────────────────┼────────────────────┼────────────────────┼──────────────────────────────────────────────────────────────────────────────────────────────────────────────────────────────────┼─────────────────────────────────────────────────────────────────────────────────────────────────────────────────────────────────────────────────────────────────────────────────────────┤
 | 0x00000000000007bc | 0x0000000000000000 | 0x0000000000000001 | 0x000055ab23ccd7cf | 1 1 1 1 1 1 1 1 1 1 1 1 1 1 1 1 1 1 1 1 1 1 1 1 1 1 1 1 1 1 1 1 1 1 1 1 1 1 1 1 1 1 1 1 1 1 1 1 1 0 0 0 0 0 0 0 0 0 0 0 0 0 0 0  | 1 2 3 4 5 6 7 8 9 10 11 12 13 14 15 16 17 18 19 20 21 22 23 24 25 26 27 28 29 30 31 32 33 34 35 36 37 38 39 40 41 42 43 44 45 46 47 48 49 0 0 0 0 0 0 0 0 0 0 0 0 0 0 0                 |
 ├────────────────────┼────────────────────┼────────────────────┼────────────────────┼──────────────────────────────────────────────────────────────────────────────────────────────────────────────────────────────────┼─────────────────────────────────────────────────────────────────────────────────────────────────────────────────────────────────────────────────────────────────────────────────────────┤
 | 0x0000000000003f8d | 0x0000000000000018 | 0x000000000000001a | 0x000055ab23ccd7d9 | 0 0 0 0 0 0 0 0 0 0 0 0 0 0 0 0 0 0 0 0 0 0 0 0 1 0 1 1 0 1 1 1 1 1 1 1 1 1 0 0 0 0 0 0 0 1 1 0 0 0 0 0 0 0 1 1 1 1 0 1 0 1 1 0  | 0 0 0 0 0 0 0 0 0 0 0 0 0 0 0 0 0 0 0 0 0 0 0 0 1 0 2 3 0 4 5 6 7 8 9 10 11 12 0 0 0 0 0 0 0 13 14 0 0 0 0 0 0 0 15 16 17 18 0 19 0 20 21 0                                             |
 ├────────────────────┼────────────────────┼────────────────────┼────────────────────┼──────────────────────────────────────────────────────────────────────────────────────────────────────────────────────────────────┼─────────────────────────────────────────────────────────────────────────────────────────────────────────────────────────────────────────────────────────────────────────────────────────┤
 | 0x0000000000000d87 | 0x0000000000000004 | 0x0000000000000025 | 0x000055ab23ccd6d7 | 1 1 1 1 1 1 1 1 1 1 1 1 1 1 1 1 1 1 1 1 1 1 1 1 1 1 1 1 1 1 1 1 1 1 1 1 1 1 1 1 1 1 1 1 1 1 1 1 1 1 1 1 1 1 1 1 1 1 1 1 1 1 1 1  | 52 6 7 51 1 42 56 8 9 10 11 12 63 53 13 14 62 15 16 41 17 18 19 50 20 49 21 22 23 48 24 25 26 46 54 27 60 2 28 29 30 31 32 61 33 34 45 55 35 57 47 3 36 4 37 38 43 44 59 58 39 64 40 5  |
 ├────────────────────┼────────────────────┼────────────────────┼────────────────────┼──────────────────────────────────────────────────────────────────────────────────────────────────────────────────────────────────┼─────────────────────────────────────────────────────────────────────────────────────────────────────────────────────────────────────────────────────────────────────────────────────────┤
 | 0x0000000000000d8e | 0x0000000000000003 | 0x000000000000000d | 0x000055ab23ccd6d7 | 1 1 1 1 1 1 1 1 1 1 1 1 1 1 1 1 1 1 1 1 1 1 1 1 1 1 1 1 1 1 1 1 1 1 1 1 1 1 1 1 1 1 1 1 1 1 1 1 1 1 1 1 1 1 1 1 1 1 1 1 1 1 1 1  | 54 43 6 1 41 61 7 45 8 44 9 10 11 2 56 49 64 60 39 3 12 58 13 14 40 47 15 16 17 59 18 19 50 52 4 20 63 21 22 23 24 25 46 55 26 27 53 28 29 30 5 31 32 51 33 57 42 48 34 35 62 36 37 38  |
[...]
 ├─────────────┼─────────────┼──────────────────────────────────────────────────────────────────────────────────────────────────────────────────────────────────┤
 | 59          | 62          | 0 0 0 0 0 0 0 0 0 0 0 0 0 0 0 0 0 0 0 0 0 0 0 0 0 0 0 0 0 0 0 0 0 0 0 0 0 0 0 0 0 0 0 0 0 0 0 0 0 0 0 0 0 0 0 0 0 0 0 1 0 0 1 1  |
 ├─────────────┼─────────────┼──────────────────────────────────────────────────────────────────────────────────────────────────────────────────────────────────┤
 | 59          | 58          | 0 0 0 0 0 0 0 0 0 0 0 0 0 0 0 0 0 0 0 0 0 0 0 0 0 0 0 0 0 0 0 0 0 0 0 0 0 0 0 0 0 0 0 0 0 0 0 0 0 0 0 0 0 0 0 0 0 0 1 1 1 0 0 0  |
 ├─────────────┼─────────────┼──────────────────────────────────────────────────────────────────────────────────────────────────────────────────────────────────┤
 | 60          | 63          | 0 0 0 0 0 0 0 0 0 0 0 0 0 0 0 0 0 0 0 0 0 0 0 0 0 0 0 0 0 0 0 0 0 0 0 0 0 0 0 0 0 0 0 0 0 0 0 0 0 0 0 0 0 0 0 0 0 0 0 0 1 0 0 1  |
 ├─────────────┼─────────────┼──────────────────────────────────────────────────────────────────────────────────────────────────────────────────────────────────┤
 | 60          | 61          | 0 0 0 0 0 0 0 0 0 0 0 0 0 0 0 0 0 0 0 0 0 0 0 0 0 0 0 0 0 0 0 0 0 0 0 0 0 0 0 0 0 0 0 0 0 0 0 0 0 0 0 0 0 0 0 0 0 0 0 0 1 1 0 0  |
 ├─────────────┼─────────────┼──────────────────────────────────────────────────────────────────────────────────────────────────────────────────────────────────┤
 | 60          | 59          | 0 0 0 0 0 0 0 0 0 0 0 0 0 0 0 0 0 0 0 0 0 0 0 0 0 0 0 0 0 0 0 0 0 0 0 0 0 0 0 0 0 0 0 0 0 0 0 0 0 0 0 0 0 0 0 0 0 0 0 1 1 1 0 1  |
 ├─────────────┼─────────────┼──────────────────────────────────────────────────────────────────────────────────────────────────────────────────────────────────┤
 | 60          | 62          | 0 0 0 0 0 0 0 0 0 0 0 0 0 0 0 0 0 0 0 0 0 0 0 0 0 0 0 0 0 0 0 0 0 0 0 0 0 0 0 0 0 0 0 0 0 0 0 0 0 0 0 0 0 0 0 0 0 0 0 0 1 0 1 1  |
 ├─────────────┼─────────────┼──────────────────────────────────────────────────────────────────────────────────────────────────────────────────────────────────┤
 | 61          | 62          | 0 0 0 0 0 0 0 0 0 0 0 0 0 0 0 0 0 0 0 0 0 0 0 0 0 0 0 0 0 0 0 0 0 0 0 0 0 0 0 0 0 0 0 0 0 0 0 0 0 0 0 0 0 0 0 0 0 0 0 0 0 1 1 0  |
 ├─────────────┼─────────────┼──────────────────────────────────────────────────────────────────────────────────────────────────────────────────────────────────┤
 | 61          | 5           | 0 0 0 0 0 1 0 0 0 0 0 0 0 0 0 0 0 0 0 0 0 0 0 0 0 0 0 0 1 0 0 0 0 0 0 0 0 0 0 0 0 0 0 0 0 0 0 0 0 0 0 0 0 0 0 0 0 0 0 0 0 1 0 0  |
 ├─────────────┼─────────────┼──────────────────────────────────────────────────────────────────────────────────────────────────────────────────────────────────┤
 | 61          | 60          | 0 0 0 0 0 0 0 0 0 0 0 0 0 0 0 0 0 0 0 0 0 0 0 0 0 0 0 0 0 0 0 0 0 0 0 0 0 0 0 0 0 0 0 0 0 0 0 0 0 0 0 0 0 0 0 0 0 0 0 0 1 1 1 0  |
 ├─────────────┼─────────────┼──────────────────────────────────────────────────────────────────────────────────────────────────────────────────────────────────┤
 | 61          | 63          | 0 0 0 0 0 0 0 0 0 0 0 0 0 0 0 0 0 0 0 0 0 0 0 0 0 0 0 0 0 0 0 0 0 0 0 0 0 0 0 0 0 0 0 0 0 0 0 0 0 0 0 0 0 0 0 0 0 0 0 1 0 1 1 1  |
 ├─────────────┼─────────────┼──────────────────────────────────────────────────────────────────────────────────────────────────────────────────────────────────┤
 | 62          | 61          | 0 0 0 0 0 0 0 0 0 0 0 0 0 0 0 0 0 0 0 0 0 0 0 0 0 0 0 0 0 0 0 0 0 0 0 0 0 0 0 0 0 0 0 0 0 0 0 0 0 0 0 0 0 0 0 0 0 0 0 0 0 1 1 0  |
 ├─────────────┼─────────────┼──────────────────────────────────────────────────────────────────────────────────────────────────────────────────────────────────┤
 | 62          | 26          | 0 0 0 0 0 0 0 0 0 0 0 0 0 0 0 0 0 0 0 0 0 0 0 0 0 0 1 0 0 0 0 0 0 0 0 0 0 0 0 0 0 0 0 0 0 0 0 0 0 0 0 0 0 0 0 0 0 0 0 0 0 0 1 0  |
 ├─────────────┼─────────────┼──────────────────────────────────────────────────────────────────────────────────────────────────────────────────────────────────┤
 | 62          | 63          | 0 0 0 0 0 0 0 0 0 0 0 0 0 0 0 0 0 0 0 0 0 0 0 0 0 0 0 0 0 0 0 0 0 0 0 0 0 0 0 0 0 0 0 0 0 0 0 0 0 0 0 0 0 0 0 0 0 0 0 0 0 0 1 1  |
 ├─────────────┼─────────────┼──────────────────────────────────────────────────────────────────────────────────────────────────────────────────────────────────┤
 | 62          | 50          | 0 0 0 0 0 0 0 0 0 0 0 0 0 0 0 0 0 0 0 0 0 0 0 0 0 0 0 0 0 0 0 0 0 0 0 0 0 0 0 0 0 0 0 0 0 0 0 0 0 0 1 0 0 0 1 0 0 0 0 0 0 0 1 0  |
 ├─────────────┼─────────────┼──────────────────────────────────────────────────────────────────────────────────────────────────────────────────────────────────┤
 | 63          | 60          | 0 0 0 0 0 0 0 0 0 0 0 0 0 0 0 0 0 0 0 0 0 0 0 0 0 0 0 0 0 0 0 0 0 0 0 0 0 0 0 0 0 0 0 0 0 0 0 0 0 0 0 0 0 0 0 0 0 0 0 1 1 1 1 1  |
 ├─────────────┼─────────────┼──────────────────────────────────────────────────────────────────────────────────────────────────────────────────────────────────┤
 | 63          | 48          | 0 0 0 0 0 0 0 0 0 0 0 0 0 0 0 0 0 0 0 0 0 0 0 0 0 0 0 0 0 0 0 0 0 0 0 0 0 0 0 0 0 0 0 0 0 0 0 0 1 0 0 0 0 0 0 0 0 0 0 0 0 0 0 1  |
 ├─────────────┼─────────────┼──────────────────────────────────────────────────────────────────────────────────────────────────────────────────────────────────┤
 | 63          | 11          | 0 0 0 0 0 0 0 0 0 0 0 1 0 0 0 0 0 0 0 1 0 0 0 0 0 0 0 0 0 0 0 0 0 0 0 0 0 0 0 0 0 0 0 0 0 0 0 0 0 0 0 0 0 0 0 0 0 0 0 0 0 0 0 1  |
 ├─────────────┼─────────────┼──────────────────────────────────────────────────────────────────────────────────────────────────────────────────────────────────┤
 | 63          | 17          | 0 0 0 0 0 0 0 0 0 0 0 0 0 0 0 0 0 1 0 0 0 0 0 0 0 0 0 0 0 0 0 0 0 0 0 0 0 0 0 0 0 0 0 0 0 0 0 0 0 0 0 0 0 0 0 0 0 0 0 0 0 0 0 1  |
 └─────────────┴─────────────┴──────────────────────────────────────────────────────────────────────────────────────────────────────────────────────────────────┘
Pattern table end
Prefetch buffer begin
 ┌────────────────────┬────────────────────┬────────────────────┬────────────────────┬──────────────────────────────────────────────────────────────────────────────────────────────────────────────────────────────────┐
 | RegionNum          | Trigger            | Second             | Meta               | Pattern                                                                                                                          |
 ├────────────────────┼────────────────────┼────────────────────┼────────────────────┼──────────────────────────────────────────────────────────────────────────────────────────────────────────────────────────────────┤
 | 0x0000000000003d6e | 0x0000000000000000 | 0x0000000000000001 | 0x0000000000000002 | 1 0 0 0 0 0 0 0 0 0 0 0 0 0 0 0 0 0 0 0 0 0 0 0 0 0 0 0 0 0 0 0 0 0 0 0 0 0 0 0 0 0 0 0 0 0 0 1 1 1 1 1 1 1 1 1 1 1 1 1 1 1 1 1  |
 ├────────────────────┼────────────────────┼────────────────────┼────────────────────┼──────────────────────────────────────────────────────────────────────────────────────────────────────────────────────────────────┤
 | 0x0000000000003e64 | 0x0000000000000000 | 0x0000000000000001 | 0x0000000000000002 | 1 0 0 0 0 0 0 0 0 0 0 0 0 0 0 0 0 0 0 0 0 0 0 0 0 0 0 0 0 0 0 0 0 0 0 0 0 0 1 1 1 1 1 1 1 1 1 1 1 1 1 1 1 1 1 1 1 1 1 1 1 1 1 1  |
 ├────────────────────┼────────────────────┼────────────────────┼────────────────────┼──────────────────────────────────────────────────────────────────────────────────────────────────────────────────────────────────┤
 | 0x0000000000003e80 | 0x0000000000000000 | 0x0000000000000001 | 0x0000000000000002 | 1 0 0 0 0 0 0 0 0 0 0 0 0 0 0 0 0 0 0 0 0 0 0 0 0 0 0 0 0 0 0 0 0 0 0 0 0 0 0 0 0 0 0 0 0 0 0 0 0 0 1 1 1 1 1 1 1 1 1 1 1 1 1 1  |
 ├────────────────────┼────────────────────┼────────────────────┼────────────────────┼──────────────────────────────────────────────────────────────────────────────────────────────────────────────────────────────────┤
 | 0x0000000000003a9f | 0x0000000000000000 | 0x0000000000000001 | 0x0000000000000002 | 1 0 0 0 0 0 0 0 0 0 0 0 0 0 0 0 0 0 0 0 0 0 0 0 0 0 0 0 0 0 0 0 0 0 0 0 0 0 0 0 0 0 0 0 0 0 0 0 0 0 0 0 0 0 0 0 0 0 0 1 1 1 1 1  |
 ├────────────────────┼────────────────────┼────────────────────┼────────────────────┼──────────────────────────────────────────────────────────────────────────────────────────────────────────────────────────────────┤
 | 0x0000000000003ebf | 0x0000000000000000 | 0x0000000000000001 | 0x0000000000000002 | 1 0 0 0 0 0 0 0 0 0 0 0 0 0 0 0 0 0 0 0 0 0 0 0 0 0 0 0 0 0 0 0 0 0 0 0 0 0 0 1 1 0 1 0 1 1 1 1 1 1 1 1 1 1 1 1 1 1 1 1 1 1 1 1  |
 ├────────────────────┼────────────────────┼────────────────────┼────────────────────┼──────────────────────────────────────────────────────────────────────────────────────────────────────────────────────────────────┤
 | 0x0000000000003d92 | 0x0000000000000000 | 0x0000000000000001 | 0x0000000000000002 | 1 0 0 0 0 0 0 0 0 0 0 0 0 0 0 0 0 0 0 0 0 0 0 0 0 0 0 0 0 0 0 0 0 0 0 0 0 0 1 1 1 1 1 1 1 1 1 1 1 1 1 1 1 1 1 1 1 1 1 1 1 1 1 1  |
 ├────────────────────┼────────────────────┼────────────────────┼────────────────────┼──────────────────────────────────────────────────────────────────────────────────────────────────────────────────────────────────┤
 | 0x0000000000003dbf | 0x0000000000000000 | 0x0000000000000001 | 0x0000000000000002 | 1 0 0 0 0 0 0 0 0 0 0 0 0 0 0 0 0 0 0 0 0 0 0 0 0 0 0 0 0 0 0 0 0 0 0 0 0 0 0 0 0 0 0 1 1 1 1 1 1 1 1 1 1 1 1 1 1 1 1 1 1 1 1 1  |
 ├────────────────────┼────────────────────┼────────────────────┼────────────────────┼──────────────────────────────────────────────────────────────────────────────────────────────────────────────────────────────────┤
 | 0x0000000000003dd3 | 0x0000000000000000 | 0x0000000000000001 | 0x0000000000000002 | 1 0 0 0 0 0 0 0 0 0 0 0 0 0 0 0 0 0 0 0 0 0 0 0 0 0 0 0 0 0 0 0 0 0 0 0 0 0 0 0 0 1 1 1 1 1 1 1 1 1 1 1 1 1 1 1 1 1 1 1 1 1 1 1  |
 ├────────────────────┼────────────────────┼────────────────────┼────────────────────┼──────────────────────────────────────────────────────────────────────────────────────────────────────────────────────────────────┤
 | 0x0000000000003f8d | 0x0000000000000000 | 0x0000000000000001 | 0x0000000000000002 | 1 0 0 0 0 0 0 0 0 0 0 0 0 0 0 0 0 0 0 0 0 0 0 0 0 0 0 0 0 0 0 0 0 0 0 0 0 0 0 0 0 0 0 0 0 0 0 0 0 0 0 0 0 0 0 0 0 0 0 0 0 0 0 1  |
 ├────────────────────┼────────────────────┼────────────────────┼────────────────────┼──────────────────────────────────────────────────────────────────────────────────────────────────────────────────────────────────┤
 | 0x0000000000003ee5 | 0x0000000000000000 | 0x0000000000000001 | 0x0000000000000002 | 1 0 0 0 0 0 0 0 0 0 0 0 0 0 0 0 0 0 0 0 0 0 0 0 0 0 0 1 1 1 1 1 1 1 1 1 1 1 1 1 1 1 1 1 1 1 1 1 1 1 1 1 1 1 1 1 1 1 1 1 1 1 1 1  |
 ├────────────────────┼────────────────────┼────────────────────┼────────────────────┼──────────────────────────────────────────────────────────────────────────────────────────────────────────────────────────────────┤
 | 0x0000000000003b98 | 0x0000000000000000 | 0x0000000000000001 | 0x0000000000000002 | 1 0 0 0 0 0 0 0 0 0 0 0 0 0 0 0 0 0 0 0 0 0 0 0 0 0 0 0 0 0 0 0 0 0 0 0 0 0 0 0 0 0 0 0 0 0 0 0 0 0 0 0 0 0 0 0 0 0 0 0 0 1 1 0  |
 ├────────────────────┼────────────────────┼────────────────────┼────────────────────┼──────────────────────────────────────────────────────────────────────────────────────────────────────────────────────────────────┤
 | 0x0000000000003e70 | 0x0000000000000000 | 0x0000000000000001 | 0x0000000000000002 | 1 0 0 0 0 0 0 0 0 0 0 0 0 0 0 0 0 0 0 0 0 1 1 1 1 1 1 1 1 1 1 1 1 1 1 1 1 1 1 1 1 1 1 1 1 1 1 1 1 1 1 1 1 1 1 1 1 1 1 1 1 1 1 1  |
 ├────────────────────┼────────────────────┼────────────────────┼────────────────────┼──────────────────────────────────────────────────────────────────────────────────────────────────────────────────────────────────┤
 | 0x0000000000003cc6 | 0x0000000000000000 | 0x0000000000000001 | 0x0000000000000002 | 1 0 0 0 0 0 0 0 0 0 0 0 0 0 0 0 0 0 0 0 0 0 0 0 0 0 0 0 0 0 0 0 0 0 0 0 0 1 1 1 1 1 1 1 1 1 1 1 1 1 1 1 1 1 1 1 1 1 1 1 1 1 1 1  |
 ├────────────────────┼────────────────────┼────────────────────┼────────────────────┼──────────────────────────────────────────────────────────────────────────────────────────────────────────────────────────────────┤
 | 0x0000000000003d3d | 0x0000000000000000 | 0x0000000000000001 | 0x0000000000000002 | 1 0 0 0 0 0 0 0 0 0 0 0 0 0 0 0 0 0 0 0 0 0 0 0 0 0 0 0 0 0 0 0 0 0 0 0 0 0 0 0 0 0 0 0 0 1 1 1 1 1 1 1 1 1 1 1 1 1 1 1 1 1 1 1  |
 ├────────────────────┼────────────────────┼────────────────────┼────────────────────┼──────────────────────────────────────────────────────────────────────────────────────────────────────────────────────────────────┤
 | 0x0000000000003d76 | 0x0000000000000000 | 0x0000000000000001 | 0x0000000000000002 | 1 0 0 0 0 0 0 0 0 0 0 0 0 0 0 0 0 0 0 0 0 0 0 0 0 0 0 0 0 0 0 0 0 0 0 0 0 0 0 0 0 0 1 1 1 1 1 1 1 1 1 1 1 1 1 1 1 1 1 1 1 1 1 1  |
 ├────────────────────┼────────────────────┼────────────────────┼────────────────────┼──────────────────────────────────────────────────────────────────────────────────────────────────────────────────────────────────┤
 | 0x00000000000038ac | 0x0000000000000000 | 0x0000000000000001 | 0x0000000000000002 | 1 0 0 0 0 0 0 0 0 0 0 0 0 0 0 0 0 0 0 0 0 0 0 0 0 0 0 0 0 0 0 0 0 0 0 0 0 0 0 0 0 0 0 0 0 0 0 0 0 0 0 0 0 0 0 0 0 0 0 0 0 1 1 1  |
 ├────────────────────┼────────────────────┼────────────────────┼────────────────────┼──────────────────────────────────────────────────────────────────────────────────────────────────────────────────────────────────┤
 | 0x0000000000003cc1 | 0x0000000000000000 | 0x0000000000000001 | 0x0000000000000002 | 1 0 0 0 0 0 0 0 0 0 0 0 0 0 0 0 0 0 0 0 0 0 0 0 1 1 1 1 1 1 1 1 1 1 1 1 1 1 1 1 1 1 1 1 1 1 1 1 1 1 1 1 1 1 1 1 1 1 1 1 1 1 1 1  |
 ├────────────────────┼────────────────────┼────────────────────┼────────────────────┼──────────────────────────────────────────────────────────────────────────────────────────────────────────────────────────────────┤
 | 0x0000000000003c32 | 0x0000000000000000 | 0x0000000000000001 | 0x0000000000000002 | 1 0 0 0 0 0 0 0 0 0 0 0 0 0 0 0 0 0 0 0 0 0 0 0 0 0 0 0 0 0 0 1 1 1 1 1 1 1 1 1 1 1 1 1 1 1 1 1 1 1 1 1 1 1 1 1 1 1 1 1 1 1 1 1  |
 ├────────────────────┼────────────────────┼────────────────────┼────────────────────┼──────────────────────────────────────────────────────────────────────────────────────────────────────────────────────────────────┤
 | 0x0000000000003cf8 | 0x0000000000000000 | 0x0000000000000001 | 0x0000000000000002 | 1 0 0 0 0 0 0 0 0 0 0 0 0 0 0 0 0 0 0 0 0 0 0 0 0 0 0 0 0 0 0 0 0 0 0 0 0 0 0 0 0 0 0 1 1 1 1 1 1 1 1 1 1 1 1 1 1 1 1 1 1 1 1 1  |
 ├────────────────────┼────────────────────┼────────────────────┼────────────────────┼──────────────────────────────────────────────────────────────────────────────────────────────────────────────────────────────────┤
 | 0x0000000000003a38 | 0x0000000000000000 | 0x0000000000000001 | 0x0000000000000002 | 1 0 0 0 0 0 0 0 0 0 0 0 0 0 0 0 0 0 0 0 0 0 0 0 0 0 0 0 0 0 0 0 0 0 0 0 0 0 0 0 0 0 0 1 1 1 1 1 1 1 1 1 1 1 1 1 1 1 1 1 1 1 1 1  |
 ├────────────────────┼────────────────────┼────────────────────┼────────────────────┼──────────────────────────────────────────────────────────────────────────────────────────────────────────────────────────────────┤
 | 0x0000000000006d14 | 0x0000000000000000 | 0x0000000000000001 | 0x0000000000000002 | 1 0 0 0 0 0 0 0 0 0 0 0 0 0 0 0 1 1 1 1 1 1 1 1 1 1 1 1 1 1 1 1 1 1 1 1 1 1 1 1 1 1 1 1 1 1 1 1 1 1 1 1 1 1 1 1 1 1 1 1 1 1 1 1  |
 ├────────────────────┼────────────────────┼────────────────────┼────────────────────┼──────────────────────────────────────────────────────────────────────────────────────────────────────────────────────────────────┤
 | 0x0000000000003cf7 | 0x0000000000000000 | 0x0000000000000001 | 0x0000000000000002 | 1 0 0 0 0 0 0 0 0 0 0 0 0 0 0 0 0 0 0 0 0 0 0 1 1 1 1 1 1 1 1 1 1 1 1 1 1 1 0 1 1 1 1 1 1 1 1 1 1 1 1 1 1 1 1 1 1 1 1 1 1 1 1 1  |
 ├────────────────────┼────────────────────┼────────────────────┼────────────────────┼──────────────────────────────────────────────────────────────────────────────────────────────────────────────────────────────────┤
 | 0x0000000000003e2d | 0x0000000000000000 | 0x0000000000000001 | 0x0000000000000002 | 1 0 0 0 0 0 0 0 0 0 0 0 0 0 0 0 0 0 0 0 0 0 0 0 0 0 0 0 0 0 0 0 0 0 0 0 0 0 0 0 0 0 0 0 0 0 0 0 0 1 1 1 1 1 1 1 1 1 1 1 1 1 1 1  |
 ├────────────────────┼────────────────────┼────────────────────┼────────────────────┼──────────────────────────────────────────────────────────────────────────────────────────────────────────────────────────────────┤
 | 0x0000000000003855 | 0x0000000000000000 | 0x0000000000000001 | 0x0000000000000002 | 1 0 0 0 0 0 0 0 0 0 0 0 0 0 0 0 0 0 0 0 0 0 0 0 0 0 0 1 1 1 1 1 1 0 0 0 0 0 0 0 0 0 0 0 0 0 0 0 0 0 0 0 0 1 1 1 1 1 1 1 1 1 1 1  |
 ├────────────────────┼────────────────────┼────────────────────┼────────────────────┼──────────────────────────────────────────────────────────────────────────────────────────────────────────────────────────────────┤
 | 0x0000000000003f4c | 0x0000000000000000 | 0x0000000000000001 | 0x0000000000000002 | 1 0 0 0 0 0 0 0 0 0 0 0 0 0 0 0 0 0 0 0 0 0 0 0 0 0 0 0 0 0 0 0 0 0 0 0 0 0 0 0 0 0 0 0 0 0 0 0 0 0 0 0 0 0 0 0 0 0 0 1 1 1 1 1  |
 ├────────────────────┼────────────────────┼────────────────────┼────────────────────┼──────────────────────────────────────────────────────────────────────────────────────────────────────────────────────────────────┤
 | 0x0000000000003f26 | 0x0000000000000000 | 0x0000000000000001 | 0x0000000000000002 | 1 0 0 0 0 0 0 0 0 0 0 0 0 0 0 0 0 0 0 0 0 0 0 0 0 0 0 0 0 0 0 0 0 0 0 0 0 0 0 0 0 0 0 0 0 0 0 0 0 0 0 0 0 0 0 0 0 0 0 0 1 1 1 1  |
 ├────────────────────┼────────────────────┼────────────────────┼────────────────────┼──────────────────────────────────────────────────────────────────────────────────────────────────────────────────────────────────┤
 | 0x0000000000003a94 | 0x0000000000000000 | 0x0000000000000001 | 0x0000000000000002 | 1 0 0 0 0 0 0 0 0 0 0 0 0 0 0 0 0 0 0 0 0 0 0 0 0 0 0 1 1 1 1 1 1 1 1 1 1 1 1 1 1 1 1 1 1 1 1 1 1 1 1 1 1 1 1 1 1 1 1 1 1 1 1 1  |
 ├────────────────────┼────────────────────┼────────────────────┼────────────────────┼──────────────────────────────────────────────────────────────────────────────────────────────────────────────────────────────────┤
 | 0x0000000000003a52 | 0x0000000000000000 | 0x0000000000000001 | 0x0000000000000002 | 1 0 0 0 0 0 0 0 0 0 0 0 0 0 0 0 0 0 0 0 0 0 0 0 0 0 0 0 0 0 0 0 0 0 0 0 0 0 0 0 0 0 0 0 0 0 1 1 1 1 1 1 1 1 1 1 1 1 1 1 1 1 1 1  |
 ├────────────────────┼────────────────────┼────────────────────┼────────────────────┼──────────────────────────────────────────────────────────────────────────────────────────────────────────────────────────────────┤
 | 0x000000000000383f | 0x0000000000000000 | 0x0000000000000001 | 0x0000000000000002 | 1 0 0 0 0 0 0 0 0 0 0 0 0 0 0 0 0 0 0 0 0 0 0 0 0 0 0 0 1 1 1 1 1 1 1 1 1 1 1 1 1 1 1 1 1 1 1 1 1 1 1 1 1 1 1 1 1 1 1 1 1 1 1 1  |
 ├────────────────────┼────────────────────┼────────────────────┼────────────────────┼──────────────────────────────────────────────────────────────────────────────────────────────────────────────────────────────────┤
 | 0x0000000000003bc0 | 0x0000000000000000 | 0x0000000000000001 | 0x0000000000000002 | 1 0 0 0 0 0 0 0 0 0 0 0 0 0 0 0 0 0 0 0 0 0 0 0 0 0 0 0 0 0 0 0 0 0 0 0 0 0 0 0 0 0 0 0 0 0 0 1 1 1 1 1 1 1 1 1 1 1 1 1 1 1 1 1  |
 └────────────────────┴────────────────────┴────────────────────┴────────────────────┴──────────────────────────────────────────────────────────────────────────────────────────────────────────────────────────────────┘
Prefetch buffer end
cpu0_L2C
Num Con Filled: 0
Num Con Useful: 0 Useless:0 Accuracy: -nan
LLC

gzip: stdout: Broken pipe
