41 41 41
Available num physical pages: 35184372088576
WARNING: physical memory size is smaller than virtual memory size

*** ChampSim Multicore Out-of-Order Simulator ***

Warmup Instructions: 200000000
Simulation Instructions: 200000000
Number of CPUs: 1
Page size: 4096

Basic BTB sets: 1024 ways: 8 indirect buffer size: 4096 RAS size: 64
cpu0_L1D Gaze NEW NEW prefetcher
Pattern Table index_len: 6
Off-chip DRAM Size: 4 GiB Channels: 1 Width: 64-bit Data Rate: 3200 MT/s
Heartbeat CPU 0 instructions: 10000003 cycles: 2500068 heartbeat IPC: 3.9999 cumulative IPC: 3.9999 (Simulation time: 0 hr 3 min 12 sec) 
Heartbeat CPU 0 instructions: 20000003 cycles: 5000090 heartbeat IPC: 3.99997 cumulative IPC: 3.99993 (Simulation time: 0 hr 7 min 50 sec) 
Heartbeat CPU 0 instructions: 30000003 cycles: 7500090 heartbeat IPC: 4 cumulative IPC: 3.99996 (Simulation time: 0 hr 12 min 24 sec) 
Heartbeat CPU 0 instructions: 40000003 cycles: 10000090 heartbeat IPC: 4 cumulative IPC: 3.99997 (Simulation time: 0 hr 17 min 13 sec) 
Heartbeat CPU 0 instructions: 50000003 cycles: 12500090 heartbeat IPC: 4 cumulative IPC: 3.99998 (Simulation time: 0 hr 22 min 13 sec) 
Heartbeat CPU 0 instructions: 60000003 cycles: 15000090 heartbeat IPC: 4 cumulative IPC: 3.99998 (Simulation time: 0 hr 27 min 6 sec) 
Heartbeat CPU 0 instructions: 70000003 cycles: 17500090 heartbeat IPC: 4 cumulative IPC: 3.99998 (Simulation time: 0 hr 31 min 58 sec) 
Heartbeat CPU 0 instructions: 80000003 cycles: 20000090 heartbeat IPC: 4 cumulative IPC: 3.99999 (Simulation time: 0 hr 36 min 53 sec) 
Heartbeat CPU 0 instructions: 90000003 cycles: 22500090 heartbeat IPC: 4 cumulative IPC: 3.99999 (Simulation time: 0 hr 41 min 48 sec) 
Heartbeat CPU 0 instructions: 100000003 cycles: 25000090 heartbeat IPC: 4 cumulative IPC: 3.99999 (Simulation time: 0 hr 46 min 27 sec) 
Heartbeat CPU 0 instructions: 110000003 cycles: 27500090 heartbeat IPC: 4 cumulative IPC: 3.99999 (Simulation time: 0 hr 51 min 42 sec) 
Heartbeat CPU 0 instructions: 120000003 cycles: 30000090 heartbeat IPC: 4 cumulative IPC: 3.99999 (Simulation time: 0 hr 56 min 49 sec) 
Heartbeat CPU 0 instructions: 130000003 cycles: 32500090 heartbeat IPC: 4 cumulative IPC: 3.99999 (Simulation time: 1 hr 1 min 59 sec) 
Heartbeat CPU 0 instructions: 140000003 cycles: 35000090 heartbeat IPC: 4 cumulative IPC: 3.99999 (Simulation time: 1 hr 7 min 10 sec) 
Heartbeat CPU 0 instructions: 150000003 cycles: 37500090 heartbeat IPC: 4 cumulative IPC: 4 (Simulation time: 1 hr 12 min 8 sec) 
Heartbeat CPU 0 instructions: 160000003 cycles: 40000090 heartbeat IPC: 4 cumulative IPC: 4 (Simulation time: 1 hr 17 min 15 sec) 
Heartbeat CPU 0 instructions: 170000003 cycles: 42500090 heartbeat IPC: 4 cumulative IPC: 4 (Simulation time: 1 hr 22 min 11 sec) 
Heartbeat CPU 0 instructions: 180000003 cycles: 45000090 heartbeat IPC: 4 cumulative IPC: 4 (Simulation time: 1 hr 26 min 58 sec) 
Heartbeat CPU 0 instructions: 190000003 cycles: 47500090 heartbeat IPC: 4 cumulative IPC: 4 (Simulation time: 1 hr 31 min 8 sec) 
Heartbeat CPU 0 instructions: 200000001 cycles: 50000145 heartbeat IPC: 3.99992 cumulative IPC: 3.99999 (Simulation time: 1 hr 34 min 57 sec) 
Max paddr 137M
Warmup finished CPU 0 instructions: 200000001 cycles: 50000146 cumulative IPC: 3.99999 (Simulation time: 1 hr 34 min 57 sec) 

Warmup complete CPU 0 instructions: 200000001 cycles: 50000146 (Simulation time: 1 hr 34 min 57 sec) 

Heartbeat CPU 0 instructions: 210000003 cycles: 91788402 heartbeat IPC: 0.239302 cumulative IPC: 0.239302 (Simulation time: 2 hr 5 min 32 sec) 
Heartbeat CPU 0 instructions: 220000001 cycles: 133628100 heartbeat IPC: 0.239008 cumulative IPC: 0.239155 (Simulation time: 2 hr 36 min 9 sec) 
Heartbeat CPU 0 instructions: 230000004 cycles: 175564678 heartbeat IPC: 0.238456 cumulative IPC: 0.238921 (Simulation time: 3 hr 6 min 16 sec) 
Heartbeat CPU 0 instructions: 240000003 cycles: 217690941 heartbeat IPC: 0.237382 cumulative IPC: 0.238535 (Simulation time: 3 hr 33 min 31 sec) 
