41 41 41
Available num physical pages: 35184372088576
WARNING: physical memory size is smaller than virtual memory size

*** ChampSim Multicore Out-of-Order Simulator ***

Warmup Instructions: 200000000
Simulation Instructions: 200000000
Number of CPUs: 1
Page size: 4096

Basic BTB sets: 1024 ways: 8 indirect buffer size: 4096 RAS size: 64
cpu0_L1D Gaze NEW NEW prefetcher
Pattern Table index_len: 6
Off-chip DRAM Size: 4 GiB Channels: 1 Width: 64-bit Data Rate: 3200 MT/s
Heartbeat CPU 0 instructions: 10000000 cycles: 2611363 heartbeat IPC: 3.82942 cumulative IPC: 3.82942 (Simulation time: 0 hr 9 min 59 sec) 
Heartbeat CPU 0 instructions: 20000002 cycles: 5188076 heartbeat IPC: 3.88092 cumulative IPC: 3.855 (Simulation time: 0 hr 19 min 41 sec) 
Heartbeat CPU 0 instructions: 30000002 cycles: 7799734 heartbeat IPC: 3.82899 cumulative IPC: 3.84629 (Simulation time: 0 hr 29 min 49 sec) 
Heartbeat CPU 0 instructions: 40000000 cycles: 10381120 heartbeat IPC: 3.87389 cumulative IPC: 3.85315 (Simulation time: 0 hr 39 min 36 sec) 
Heartbeat CPU 0 instructions: 50000001 cycles: 12991991 heartbeat IPC: 3.83014 cumulative IPC: 3.84853 (Simulation time: 0 hr 49 min 19 sec) 
Heartbeat CPU 0 instructions: 60000003 cycles: 15574164 heartbeat IPC: 3.87271 cumulative IPC: 3.85254 (Simulation time: 0 hr 59 min 0 sec) 
Heartbeat CPU 0 instructions: 70000000 cycles: 18167866 heartbeat IPC: 3.8555 cumulative IPC: 3.85296 (Simulation time: 1 hr 8 min 42 sec) 
Heartbeat CPU 0 instructions: 80000000 cycles: 20759413 heartbeat IPC: 3.8587 cumulative IPC: 3.85368 (Simulation time: 1 hr 18 min 16 sec) 
Heartbeat CPU 0 instructions: 90000001 cycles: 23332483 heartbeat IPC: 3.88641 cumulative IPC: 3.85729 (Simulation time: 1 hr 27 min 42 sec) 
Heartbeat CPU 0 instructions: 100000000 cycles: 25944303 heartbeat IPC: 3.82875 cumulative IPC: 3.85442 (Simulation time: 1 hr 37 min 31 sec) 
Heartbeat CPU 0 instructions: 110000001 cycles: 28521178 heartbeat IPC: 3.88067 cumulative IPC: 3.85679 (Simulation time: 1 hr 47 min 0 sec) 
Heartbeat CPU 0 instructions: 120000002 cycles: 31103326 heartbeat IPC: 3.87275 cumulative IPC: 3.85811 (Simulation time: 1 hr 56 min 38 sec) 
Heartbeat CPU 0 instructions: 130000002 cycles: 33713871 heartbeat IPC: 3.83062 cumulative IPC: 3.85598 (Simulation time: 2 hr 5 min 55 sec) 
Heartbeat CPU 0 instructions: 140000002 cycles: 36295647 heartbeat IPC: 3.87331 cumulative IPC: 3.85722 (Simulation time: 2 hr 15 min 26 sec) 
Heartbeat CPU 0 instructions: 150000003 cycles: 38885578 heartbeat IPC: 3.86111 cumulative IPC: 3.85748 (Simulation time: 2 hr 25 min 3 sec) 
Heartbeat CPU 0 instructions: 160000003 cycles: 41487803 heartbeat IPC: 3.84287 cumulative IPC: 3.85656 (Simulation time: 2 hr 34 min 43 sec) 
Heartbeat CPU 0 instructions: 170000002 cycles: 44060920 heartbeat IPC: 3.88634 cumulative IPC: 3.8583 (Simulation time: 2 hr 44 min 0 sec) 
Heartbeat CPU 0 instructions: 180000002 cycles: 46669293 heartbeat IPC: 3.83381 cumulative IPC: 3.85693 (Simulation time: 2 hr 53 min 34 sec) 
Heartbeat CPU 0 instructions: 190000002 cycles: 49244323 heartbeat IPC: 3.88345 cumulative IPC: 3.85832 (Simulation time: 3 hr 3 min 14 sec) 
Heartbeat CPU 0 instructions: 200000001 cycles: 51848245 heartbeat IPC: 3.84037 cumulative IPC: 3.85742 (Simulation time: 3 hr 12 min 41 sec) 
Max paddr 504M
Warmup finished CPU 0 instructions: 200000001 cycles: 51848246 cumulative IPC: 3.85742 (Simulation time: 3 hr 12 min 41 sec) 

Warmup complete CPU 0 instructions: 200000001 cycles: 51848246 (Simulation time: 3 hr 12 min 41 sec) 

Heartbeat CPU 0 instructions: 210000002 cycles: 129351031 heartbeat IPC: 0.129028 cumulative IPC: 0.129028 (Simulation time: 4 hr 9 min 5 sec) 
Heartbeat CPU 0 instructions: 220000001 cycles: 220544060 heartbeat IPC: 0.109658 cumulative IPC: 0.118557 (Simulation time: 5 hr 12 min 6 sec) 
Heartbeat CPU 0 instructions: 230000000 cycles: 305300963 heartbeat IPC: 0.117985 cumulative IPC: 0.118366 (Simulation time: 6 hr 14 min 19 sec) 
Heartbeat CPU 0 instructions: 240000004 cycles: 385987222 heartbeat IPC: 0.123937 cumulative IPC: 0.119711 (Simulation time: 7 hr 5 min 28 sec) 
Heartbeat CPU 0 instructions: 250000004 cycles: 481296699 heartbeat IPC: 0.104922 cumulative IPC: 0.116429 (Simulation time: 7 hr 55 min 20 sec) 
Heartbeat CPU 0 instructions: 260000001 cycles: 569183480 heartbeat IPC: 0.113783 cumulative IPC: 0.115979 (Simulation time: 8 hr 35 min 14 sec) 
Heartbeat CPU 0 instructions: 270000003 cycles: 663616604 heartbeat IPC: 0.105896 cumulative IPC: 0.114423 (Simulation time: 9 hr 9 min 36 sec) 
Heartbeat CPU 0 instructions: 280000000 cycles: 743652175 heartbeat IPC: 0.124945 cumulative IPC: 0.11564 (Simulation time: 9 hr 28 min 35 sec) 
Heartbeat CPU 0 instructions: 290000000 cycles: 832315194 heartbeat IPC: 0.112787 cumulative IPC: 0.115316 (Simulation time: 9 hr 40 min 5 sec) 
Heartbeat CPU 0 instructions: 300000000 cycles: 913902476 heartbeat IPC: 0.122569 cumulative IPC: 0.116002 (Simulation time: 9 hr 48 min 0 sec) 
