41 41 41
Available num physical pages: 35184372088576
WARNING: physical memory size is smaller than virtual memory size

*** ChampSim Multicore Out-of-Order Simulator ***

Warmup Instructions: 200000000
Simulation Instructions: 200000000
Number of CPUs: 1
Page size: 4096

Basic BTB sets: 1024 ways: 8 indirect buffer size: 4096 RAS size: 64
cpu0_L1D Gaze NEW NEW prefetcher
Pattern Table index_len: 6
Off-chip DRAM Size: 4 GiB Channels: 1 Width: 64-bit Data Rate: 3200 MT/s
Heartbeat CPU 0 instructions: 10000003 cycles: 2500051 heartbeat IPC: 3.99992 cumulative IPC: 3.99992 (Simulation time: 0 hr 7 min 48 sec) 
Heartbeat CPU 0 instructions: 20000003 cycles: 5000051 heartbeat IPC: 4 cumulative IPC: 3.99996 (Simulation time: 0 hr 15 min 27 sec) 
Heartbeat CPU 0 instructions: 30000003 cycles: 7500051 heartbeat IPC: 4 cumulative IPC: 3.99998 (Simulation time: 0 hr 23 min 25 sec) 
Heartbeat CPU 0 instructions: 40000003 cycles: 10000051 heartbeat IPC: 4 cumulative IPC: 3.99998 (Simulation time: 0 hr 31 min 19 sec) 
Heartbeat CPU 0 instructions: 50000003 cycles: 12500051 heartbeat IPC: 4 cumulative IPC: 3.99999 (Simulation time: 0 hr 39 min 13 sec) 
Heartbeat CPU 0 instructions: 60000003 cycles: 15000051 heartbeat IPC: 4 cumulative IPC: 3.99999 (Simulation time: 0 hr 47 min 12 sec) 
Heartbeat CPU 0 instructions: 70000003 cycles: 17500051 heartbeat IPC: 4 cumulative IPC: 3.99999 (Simulation time: 0 hr 55 min 9 sec) 
Heartbeat CPU 0 instructions: 80000003 cycles: 20000051 heartbeat IPC: 4 cumulative IPC: 3.99999 (Simulation time: 1 hr 3 min 10 sec) 
Heartbeat CPU 0 instructions: 90000003 cycles: 22500051 heartbeat IPC: 4 cumulative IPC: 4 (Simulation time: 1 hr 11 min 11 sec) 
Heartbeat CPU 0 instructions: 100000003 cycles: 25000051 heartbeat IPC: 4 cumulative IPC: 4 (Simulation time: 1 hr 19 min 11 sec) 
Heartbeat CPU 0 instructions: 110000003 cycles: 27500051 heartbeat IPC: 4 cumulative IPC: 4 (Simulation time: 1 hr 27 min 11 sec) 
Heartbeat CPU 0 instructions: 120000003 cycles: 30000051 heartbeat IPC: 4 cumulative IPC: 4 (Simulation time: 1 hr 35 min 15 sec) 
Heartbeat CPU 0 instructions: 130000003 cycles: 32500051 heartbeat IPC: 4 cumulative IPC: 4 (Simulation time: 1 hr 43 min 11 sec) 
Heartbeat CPU 0 instructions: 140000003 cycles: 35000051 heartbeat IPC: 4 cumulative IPC: 4 (Simulation time: 1 hr 51 min 13 sec) 
Heartbeat CPU 0 instructions: 150000003 cycles: 37500051 heartbeat IPC: 4 cumulative IPC: 4 (Simulation time: 1 hr 59 min 14 sec) 
Heartbeat CPU 0 instructions: 160000003 cycles: 40000051 heartbeat IPC: 4 cumulative IPC: 4 (Simulation time: 2 hr 7 min 14 sec) 
Heartbeat CPU 0 instructions: 170000003 cycles: 42500051 heartbeat IPC: 4 cumulative IPC: 4 (Simulation time: 2 hr 15 min 10 sec) 
Heartbeat CPU 0 instructions: 180000003 cycles: 45000051 heartbeat IPC: 4 cumulative IPC: 4 (Simulation time: 2 hr 23 min 3 sec) 
Heartbeat CPU 0 instructions: 190000003 cycles: 47500051 heartbeat IPC: 4 cumulative IPC: 4 (Simulation time: 2 hr 30 min 56 sec) 
Heartbeat CPU 0 instructions: 200000003 cycles: 50000051 heartbeat IPC: 4 cumulative IPC: 4 (Simulation time: 2 hr 38 min 40 sec) 
Max paddr 214M
Warmup finished CPU 0 instructions: 200000003 cycles: 50000052 cumulative IPC: 4 (Simulation time: 2 hr 38 min 40 sec) 

Warmup complete CPU 0 instructions: 200000003 cycles: 50000052 (Simulation time: 2 hr 38 min 40 sec) 

Heartbeat CPU 0 instructions: 210000002 cycles: 56749819 heartbeat IPC: 1.48154 cumulative IPC: 1.48154 (Simulation time: 2 hr 52 min 32 sec) 
Heartbeat CPU 0 instructions: 220000004 cycles: 63513401 heartbeat IPC: 1.47851 cumulative IPC: 1.48002 (Simulation time: 3 hr 6 min 22 sec) 
Heartbeat CPU 0 instructions: 230000003 cycles: 70318053 heartbeat IPC: 1.46959 cumulative IPC: 1.47653 (Simulation time: 3 hr 20 min 19 sec) 
Heartbeat CPU 0 instructions: 240000002 cycles: 77123334 heartbeat IPC: 1.46945 cumulative IPC: 1.47475 (Simulation time: 3 hr 34 min 13 sec) 
Heartbeat CPU 0 instructions: 250000000 cycles: 83849336 heartbeat IPC: 1.48677 cumulative IPC: 1.47714 (Simulation time: 3 hr 48 min 7 sec) 
Heartbeat CPU 0 instructions: 260000004 cycles: 90566960 heartbeat IPC: 1.48863 cumulative IPC: 1.47904 (Simulation time: 4 hr 2 min 3 sec) 
Heartbeat CPU 0 instructions: 270000004 cycles: 97324429 heartbeat IPC: 1.47985 cumulative IPC: 1.47916 (Simulation time: 4 hr 15 min 49 sec) 
Heartbeat CPU 0 instructions: 280000004 cycles: 104097323 heartbeat IPC: 1.47648 cumulative IPC: 1.47882 (Simulation time: 4 hr 29 min 41 sec) 
Heartbeat CPU 0 instructions: 290000004 cycles: 110884884 heartbeat IPC: 1.47329 cumulative IPC: 1.47821 (Simulation time: 4 hr 43 min 31 sec) 
Heartbeat CPU 0 instructions: 300000003 cycles: 117543225 heartbeat IPC: 1.50188 cumulative IPC: 1.48054 (Simulation time: 4 hr 57 min 19 sec) 
Heartbeat CPU 0 instructions: 310000004 cycles: 124300306 heartbeat IPC: 1.47993 cumulative IPC: 1.48048 (Simulation time: 5 hr 11 min 13 sec) 
Heartbeat CPU 0 instructions: 320000000 cycles: 131058705 heartbeat IPC: 1.47964 cumulative IPC: 1.48041 (Simulation time: 5 hr 24 min 29 sec) 
Heartbeat CPU 0 instructions: 330000001 cycles: 137799542 heartbeat IPC: 1.4835 cumulative IPC: 1.48065 (Simulation time: 5 hr 36 min 27 sec) 
Heartbeat CPU 0 instructions: 340000000 cycles: 144553066 heartbeat IPC: 1.48071 cumulative IPC: 1.48066 (Simulation time: 5 hr 48 min 11 sec) 
Heartbeat CPU 0 instructions: 350000003 cycles: 150380984 heartbeat IPC: 1.71588 cumulative IPC: 1.49431 (Simulation time: 5 hr 57 min 2 sec) 
Heartbeat CPU 0 instructions: 360000004 cycles: 155581799 heartbeat IPC: 1.92278 cumulative IPC: 1.51542 (Simulation time: 6 hr 4 min 44 sec) 
