41 41 41
Available num physical pages: 35184372088576
WARNING: physical memory size is smaller than virtual memory size

*** ChampSim Multicore Out-of-Order Simulator ***

Warmup Instructions: 200000000
Simulation Instructions: 200000000
Number of CPUs: 1
Page size: 4096

Basic BTB sets: 1024 ways: 8 indirect buffer size: 4096 RAS size: 64
cpu0_L1D Gaze NEW NEW prefetcher
Pattern Table index_len: 6
Off-chip DRAM Size: 4 GiB Channels: 1 Width: 64-bit Data Rate: 3200 MT/s
Heartbeat CPU 0 instructions: 10000002 cycles: 3084670 heartbeat IPC: 3.24184 cumulative IPC: 3.24184 (Simulation time: 0 hr 3 min 59 sec) 
Heartbeat CPU 0 instructions: 20000001 cycles: 5587509 heartbeat IPC: 3.99547 cumulative IPC: 3.57942 (Simulation time: 0 hr 8 min 31 sec) 
Heartbeat CPU 0 instructions: 30000002 cycles: 8089636 heartbeat IPC: 3.99661 cumulative IPC: 3.70845 (Simulation time: 0 hr 13 min 10 sec) 
Heartbeat CPU 0 instructions: 40000001 cycles: 10591767 heartbeat IPC: 3.9966 cumulative IPC: 3.77652 (Simulation time: 0 hr 17 min 50 sec) 
Heartbeat CPU 0 instructions: 50000001 cycles: 13092476 heartbeat IPC: 3.99887 cumulative IPC: 3.81899 (Simulation time: 0 hr 22 min 23 sec) 
Heartbeat CPU 0 instructions: 60000003 cycles: 15593895 heartbeat IPC: 3.99774 cumulative IPC: 3.84766 (Simulation time: 0 hr 27 min 0 sec) 
Heartbeat CPU 0 instructions: 70000000 cycles: 18094605 heartbeat IPC: 3.99887 cumulative IPC: 3.86856 (Simulation time: 0 hr 31 min 35 sec) 
Heartbeat CPU 0 instructions: 80000003 cycles: 20595314 heartbeat IPC: 3.99887 cumulative IPC: 3.88438 (Simulation time: 0 hr 36 min 27 sec) 
Heartbeat CPU 0 instructions: 90000000 cycles: 23096021 heartbeat IPC: 3.99887 cumulative IPC: 3.89678 (Simulation time: 0 hr 41 min 14 sec) 
Heartbeat CPU 0 instructions: 100000001 cycles: 25596729 heartbeat IPC: 3.99887 cumulative IPC: 3.90675 (Simulation time: 0 hr 46 min 8 sec) 
Heartbeat CPU 0 instructions: 110000001 cycles: 28097438 heartbeat IPC: 3.99887 cumulative IPC: 3.91495 (Simulation time: 0 hr 50 min 59 sec) 
Heartbeat CPU 0 instructions: 120000003 cycles: 30598147 heartbeat IPC: 3.99887 cumulative IPC: 3.92181 (Simulation time: 0 hr 55 min 36 sec) 
Heartbeat CPU 0 instructions: 130000003 cycles: 33098856 heartbeat IPC: 3.99887 cumulative IPC: 3.92763 (Simulation time: 1 hr 0 min 20 sec) 
Heartbeat CPU 0 instructions: 140000003 cycles: 35681477 heartbeat IPC: 3.87204 cumulative IPC: 3.92361 (Simulation time: 1 hr 4 min 31 sec) 
Heartbeat CPU 0 instructions: 150000004 cycles: 38338070 heartbeat IPC: 3.76423 cumulative IPC: 3.91257 (Simulation time: 1 hr 7 min 56 sec) 
Heartbeat CPU 0 instructions: 160000003 cycles: 40997020 heartbeat IPC: 3.76089 cumulative IPC: 3.90273 (Simulation time: 1 hr 11 min 25 sec) 
Heartbeat CPU 0 instructions: 170000002 cycles: 43659658 heartbeat IPC: 3.75568 cumulative IPC: 3.89376 (Simulation time: 1 hr 15 min 13 sec) 
Heartbeat CPU 0 instructions: 180000001 cycles: 46323924 heartbeat IPC: 3.75338 cumulative IPC: 3.88569 (Simulation time: 1 hr 18 min 57 sec) 
Heartbeat CPU 0 instructions: 190000004 cycles: 48989553 heartbeat IPC: 3.75147 cumulative IPC: 3.87838 (Simulation time: 1 hr 22 min 28 sec) 
Heartbeat CPU 0 instructions: 200000004 cycles: 51655904 heartbeat IPC: 3.75045 cumulative IPC: 3.87178 (Simulation time: 1 hr 26 min 12 sec) 
Max paddr 105M
Warmup finished CPU 0 instructions: 200000004 cycles: 51655905 cumulative IPC: 3.87178 (Simulation time: 1 hr 26 min 12 sec) 

Warmup complete CPU 0 instructions: 200000004 cycles: 51655905 (Simulation time: 1 hr 26 min 12 sec) 

Heartbeat CPU 0 instructions: 210000003 cycles: 71775659 heartbeat IPC: 0.497024 cumulative IPC: 0.497024 (Simulation time: 1 hr 38 min 3 sec) 
Heartbeat CPU 0 instructions: 220000001 cycles: 92668554 heartbeat IPC: 0.478632 cumulative IPC: 0.487655 (Simulation time: 1 hr 49 min 21 sec) 
Heartbeat CPU 0 instructions: 230000001 cycles: 114248292 heartbeat IPC: 0.463398 cumulative IPC: 0.479292 (Simulation time: 2 hr 1 min 45 sec) 
Heartbeat CPU 0 instructions: 240000001 cycles: 136034372 heartbeat IPC: 0.459009 cumulative IPC: 0.474055 (Simulation time: 2 hr 14 min 31 sec) 
Heartbeat CPU 0 instructions: 250000004 cycles: 158093083 heartbeat IPC: 0.453336 cumulative IPC: 0.469761 (Simulation time: 2 hr 27 min 23 sec) 
Heartbeat CPU 0 instructions: 260000004 cycles: 180744783 heartbeat IPC: 0.441468 cumulative IPC: 0.464797 (Simulation time: 2 hr 40 min 57 sec) 
Heartbeat CPU 0 instructions: 270000001 cycles: 203751369 heartbeat IPC: 0.434659 cumulative IPC: 0.460238 (Simulation time: 2 hr 53 min 40 sec) 
Heartbeat CPU 0 instructions: 280000000 cycles: 226706695 heartbeat IPC: 0.435629 cumulative IPC: 0.457011 (Simulation time: 3 hr 5 min 43 sec) 
Heartbeat CPU 0 instructions: 290000000 cycles: 250449144 heartbeat IPC: 0.421187 cumulative IPC: 0.452732 (Simulation time: 3 hr 18 min 3 sec) 
Heartbeat CPU 0 instructions: 300000001 cycles: 275064926 heartbeat IPC: 0.406244 cumulative IPC: 0.44761 (Simulation time: 3 hr 29 min 40 sec) 
Heartbeat CPU 0 instructions: 310000004 cycles: 300259466 heartbeat IPC: 0.396912 cumulative IPC: 0.442472 (Simulation time: 3 hr 40 min 24 sec) 
Heartbeat CPU 0 instructions: 320000000 cycles: 325739019 heartbeat IPC: 0.392472 cumulative IPC: 0.437824 (Simulation time: 3 hr 49 min 38 sec) 
