41 41 41
Available num physical pages: 35184372088576
WARNING: physical memory size is smaller than virtual memory size

*** ChampSim Multicore Out-of-Order Simulator ***

Warmup Instructions: 200000000
Simulation Instructions: 200000000
Number of CPUs: 1
Page size: 4096

Basic BTB sets: 1024 ways: 8 indirect buffer size: 4096 RAS size: 64
cpu0_L1D Gaze NEW NEW prefetcher
Pattern Table index_len: 6
Off-chip DRAM Size: 4 GiB Channels: 1 Width: 64-bit Data Rate: 3200 MT/s
Heartbeat CPU 0 instructions: 10000003 cycles: 2501086 heartbeat IPC: 3.99827 cumulative IPC: 3.99827 (Simulation time: 0 hr 3 min 41 sec) 
Heartbeat CPU 0 instructions: 20000002 cycles: 5002474 heartbeat IPC: 3.99779 cumulative IPC: 3.99803 (Simulation time: 0 hr 8 min 9 sec) 
Heartbeat CPU 0 instructions: 30000001 cycles: 7504953 heartbeat IPC: 3.99604 cumulative IPC: 3.99737 (Simulation time: 0 hr 12 min 23 sec) 
Heartbeat CPU 0 instructions: 40000003 cycles: 10007585 heartbeat IPC: 3.9958 cumulative IPC: 3.99697 (Simulation time: 0 hr 16 min 33 sec) 
Heartbeat CPU 0 instructions: 50000001 cycles: 12510210 heartbeat IPC: 3.99581 cumulative IPC: 3.99674 (Simulation time: 0 hr 20 min 42 sec) 
Heartbeat CPU 0 instructions: 60000001 cycles: 15012543 heartbeat IPC: 3.99628 cumulative IPC: 3.99666 (Simulation time: 0 hr 24 min 52 sec) 
Heartbeat CPU 0 instructions: 70000002 cycles: 17514859 heartbeat IPC: 3.9963 cumulative IPC: 3.99661 (Simulation time: 0 hr 29 min 1 sec) 
Heartbeat CPU 0 instructions: 80000003 cycles: 20017397 heartbeat IPC: 3.99595 cumulative IPC: 3.99653 (Simulation time: 0 hr 33 min 6 sec) 
Heartbeat CPU 0 instructions: 90000001 cycles: 22519793 heartbeat IPC: 3.99617 cumulative IPC: 3.99649 (Simulation time: 0 hr 37 min 25 sec) 
Heartbeat CPU 0 instructions: 100000003 cycles: 25021265 heartbeat IPC: 3.99765 cumulative IPC: 3.99661 (Simulation time: 0 hr 41 min 37 sec) 
Heartbeat CPU 0 instructions: 110000003 cycles: 27523510 heartbeat IPC: 3.99642 cumulative IPC: 3.99659 (Simulation time: 0 hr 45 min 47 sec) 
Heartbeat CPU 0 instructions: 120000001 cycles: 30024878 heartbeat IPC: 3.99782 cumulative IPC: 3.99669 (Simulation time: 0 hr 49 min 56 sec) 
Heartbeat CPU 0 instructions: 130000001 cycles: 32526975 heartbeat IPC: 3.99665 cumulative IPC: 3.99669 (Simulation time: 0 hr 54 min 7 sec) 
Heartbeat CPU 0 instructions: 140000002 cycles: 35028668 heartbeat IPC: 3.9973 cumulative IPC: 3.99673 (Simulation time: 0 hr 58 min 13 sec) 
Heartbeat CPU 0 instructions: 150000001 cycles: 37529697 heartbeat IPC: 3.99836 cumulative IPC: 3.99684 (Simulation time: 1 hr 2 min 27 sec) 
Heartbeat CPU 0 instructions: 160000000 cycles: 40030929 heartbeat IPC: 3.99803 cumulative IPC: 3.99691 (Simulation time: 1 hr 6 min 46 sec) 
Heartbeat CPU 0 instructions: 170000002 cycles: 42532579 heartbeat IPC: 3.99737 cumulative IPC: 3.99694 (Simulation time: 1 hr 11 min 20 sec) 
Heartbeat CPU 0 instructions: 180000003 cycles: 45034532 heartbeat IPC: 3.99688 cumulative IPC: 3.99694 (Simulation time: 1 hr 15 min 33 sec) 
Heartbeat CPU 0 instructions: 190000002 cycles: 47535906 heartbeat IPC: 3.99781 cumulative IPC: 3.99698 (Simulation time: 1 hr 19 min 22 sec) 
Heartbeat CPU 0 instructions: 200000001 cycles: 50038495 heartbeat IPC: 3.99587 cumulative IPC: 3.99693 (Simulation time: 1 hr 23 min 30 sec) 
Max paddr 143M
Warmup finished CPU 0 instructions: 200000001 cycles: 50038496 cumulative IPC: 3.99693 (Simulation time: 1 hr 23 min 30 sec) 

Warmup complete CPU 0 instructions: 200000001 cycles: 50038496 (Simulation time: 1 hr 23 min 30 sec) 

Heartbeat CPU 0 instructions: 210000000 cycles: 64195843 heartbeat IPC: 0.706347 cumulative IPC: 0.706347 (Simulation time: 1 hr 33 min 3 sec) 
Heartbeat CPU 0 instructions: 220000003 cycles: 78660938 heartbeat IPC: 0.69132 cumulative IPC: 0.698753 (Simulation time: 1 hr 42 min 42 sec) 
Heartbeat CPU 0 instructions: 230000000 cycles: 92800694 heartbeat IPC: 0.707226 cumulative IPC: 0.701555 (Simulation time: 1 hr 51 min 49 sec) 
Heartbeat CPU 0 instructions: 240000000 cycles: 106676050 heartbeat IPC: 0.720703 cumulative IPC: 0.706246 (Simulation time: 2 hr 1 min 13 sec) 
Heartbeat CPU 0 instructions: 250000004 cycles: 120637432 heartbeat IPC: 0.716262 cumulative IPC: 0.708227 (Simulation time: 2 hr 10 min 38 sec) 
Heartbeat CPU 0 instructions: 260000002 cycles: 134770010 heartbeat IPC: 0.707585 cumulative IPC: 0.70812 (Simulation time: 2 hr 20 min 5 sec) 
Heartbeat CPU 0 instructions: 270000001 cycles: 149077885 heartbeat IPC: 0.698916 cumulative IPC: 0.70679 (Simulation time: 2 hr 29 min 52 sec) 
Heartbeat CPU 0 instructions: 280000002 cycles: 162979605 heartbeat IPC: 0.719336 cumulative IPC: 0.708334 (Simulation time: 2 hr 39 min 58 sec) 
Heartbeat CPU 0 instructions: 290000000 cycles: 176958823 heartbeat IPC: 0.715348 cumulative IPC: 0.709107 (Simulation time: 2 hr 49 min 42 sec) 
Heartbeat CPU 0 instructions: 300000002 cycles: 191201351 heartbeat IPC: 0.702123 cumulative IPC: 0.708402 (Simulation time: 3 hr 0 min 10 sec) 
Heartbeat CPU 0 instructions: 310000003 cycles: 205110861 heartbeat IPC: 0.718933 cumulative IPC: 0.709347 (Simulation time: 3 hr 9 min 34 sec) 
Heartbeat CPU 0 instructions: 320000004 cycles: 219207917 heartbeat IPC: 0.709369 cumulative IPC: 0.709349 (Simulation time: 3 hr 18 min 4 sec) 
Heartbeat CPU 0 instructions: 330000001 cycles: 233487883 heartbeat IPC: 0.700282 cumulative IPC: 0.708643 (Simulation time: 3 hr 26 min 23 sec) 
Heartbeat CPU 0 instructions: 340000002 cycles: 247873005 heartbeat IPC: 0.695163 cumulative IPC: 0.707663 (Simulation time: 3 hr 33 min 56 sec) 
Heartbeat CPU 0 instructions: 350000003 cycles: 261962716 heartbeat IPC: 0.709738 cumulative IPC: 0.707801 (Simulation time: 3 hr 42 min 51 sec) 
Heartbeat CPU 0 instructions: 360000001 cycles: 276331417 heartbeat IPC: 0.695957 cumulative IPC: 0.707049 (Simulation time: 3 hr 49 min 21 sec) 
