41 41 41
Available num physical pages: 35184372088576
WARNING: physical memory size is smaller than virtual memory size

*** ChampSim Multicore Out-of-Order Simulator ***

Warmup Instructions: 200000000
Simulation Instructions: 200000000
Number of CPUs: 1
Page size: 4096

Basic BTB sets: 1024 ways: 8 indirect buffer size: 4096 RAS size: 64
cpu0_L1D Gaze NEW NEW prefetcher
Pattern Table index_len: 6
Off-chip DRAM Size: 4 GiB Channels: 1 Width: 64-bit Data Rate: 3200 MT/s
Heartbeat CPU 0 instructions: 10000003 cycles: 2500068 heartbeat IPC: 3.9999 cumulative IPC: 3.9999 (Simulation time: 0 hr 3 min 16 sec) 
Heartbeat CPU 0 instructions: 20000003 cycles: 5000090 heartbeat IPC: 3.99997 cumulative IPC: 3.99993 (Simulation time: 0 hr 7 min 42 sec) 
Heartbeat CPU 0 instructions: 30000003 cycles: 7500090 heartbeat IPC: 4 cumulative IPC: 3.99996 (Simulation time: 0 hr 12 min 29 sec) 
Heartbeat CPU 0 instructions: 40000003 cycles: 10000090 heartbeat IPC: 4 cumulative IPC: 3.99997 (Simulation time: 0 hr 17 min 20 sec) 
Heartbeat CPU 0 instructions: 50000003 cycles: 12500090 heartbeat IPC: 4 cumulative IPC: 3.99998 (Simulation time: 0 hr 22 min 16 sec) 
Heartbeat CPU 0 instructions: 60000003 cycles: 15000090 heartbeat IPC: 4 cumulative IPC: 3.99998 (Simulation time: 0 hr 26 min 52 sec) 
Heartbeat CPU 0 instructions: 70000003 cycles: 17500090 heartbeat IPC: 4 cumulative IPC: 3.99998 (Simulation time: 0 hr 31 min 42 sec) 
Heartbeat CPU 0 instructions: 80000003 cycles: 20000090 heartbeat IPC: 4 cumulative IPC: 3.99999 (Simulation time: 0 hr 36 min 23 sec) 
Heartbeat CPU 0 instructions: 90000003 cycles: 22500090 heartbeat IPC: 4 cumulative IPC: 3.99999 (Simulation time: 0 hr 41 min 8 sec) 
Heartbeat CPU 0 instructions: 100000003 cycles: 25000090 heartbeat IPC: 4 cumulative IPC: 3.99999 (Simulation time: 0 hr 45 min 46 sec) 
Heartbeat CPU 0 instructions: 110000003 cycles: 27500090 heartbeat IPC: 4 cumulative IPC: 3.99999 (Simulation time: 0 hr 50 min 44 sec) 
Heartbeat CPU 0 instructions: 120000003 cycles: 30000090 heartbeat IPC: 4 cumulative IPC: 3.99999 (Simulation time: 0 hr 55 min 27 sec) 
Heartbeat CPU 0 instructions: 130000003 cycles: 32500090 heartbeat IPC: 4 cumulative IPC: 3.99999 (Simulation time: 1 hr 0 min 8 sec) 
Heartbeat CPU 0 instructions: 140000003 cycles: 35000090 heartbeat IPC: 4 cumulative IPC: 3.99999 (Simulation time: 1 hr 4 min 49 sec) 
Heartbeat CPU 0 instructions: 150000003 cycles: 37500090 heartbeat IPC: 4 cumulative IPC: 4 (Simulation time: 1 hr 9 min 51 sec) 
Heartbeat CPU 0 instructions: 160000003 cycles: 40000090 heartbeat IPC: 4 cumulative IPC: 4 (Simulation time: 1 hr 13 min 57 sec) 
Heartbeat CPU 0 instructions: 170000003 cycles: 42500090 heartbeat IPC: 4 cumulative IPC: 4 (Simulation time: 1 hr 18 min 44 sec) 
Heartbeat CPU 0 instructions: 180000003 cycles: 45000090 heartbeat IPC: 4 cumulative IPC: 4 (Simulation time: 1 hr 23 min 37 sec) 
Heartbeat CPU 0 instructions: 190000003 cycles: 47500090 heartbeat IPC: 4 cumulative IPC: 4 (Simulation time: 1 hr 28 min 7 sec) 
Heartbeat CPU 0 instructions: 200000001 cycles: 50000145 heartbeat IPC: 3.99992 cumulative IPC: 3.99999 (Simulation time: 1 hr 31 min 39 sec) 
Max paddr 137M
Warmup finished CPU 0 instructions: 200000001 cycles: 50000146 cumulative IPC: 3.99999 (Simulation time: 1 hr 31 min 39 sec) 

Warmup complete CPU 0 instructions: 200000001 cycles: 50000146 (Simulation time: 1 hr 31 min 39 sec) 

Heartbeat CPU 0 instructions: 210000003 cycles: 92513098 heartbeat IPC: 0.235223 cumulative IPC: 0.235223 (Simulation time: 2 hr 2 min 7 sec) 
Heartbeat CPU 0 instructions: 220000001 cycles: 135170172 heartbeat IPC: 0.234428 cumulative IPC: 0.234825 (Simulation time: 2 hr 33 min 9 sec) 
Heartbeat CPU 0 instructions: 230000004 cycles: 177795891 heartbeat IPC: 0.234601 cumulative IPC: 0.23475 (Simulation time: 3 hr 4 min 20 sec) 
Heartbeat CPU 0 instructions: 240000003 cycles: 220796017 heartbeat IPC: 0.232558 cumulative IPC: 0.234198 (Simulation time: 3 hr 31 min 8 sec) 
