41 41 41
Available num physical pages: 35184372088576
WARNING: physical memory size is smaller than virtual memory size

*** ChampSim Multicore Out-of-Order Simulator ***

Warmup Instructions: 200000000
Simulation Instructions: 200000000
Number of CPUs: 1
Page size: 4096

Basic BTB sets: 1024 ways: 8 indirect buffer size: 4096 RAS size: 64
cpu0_L1D Gaze NEW NEW prefetcher
Pattern Table index_len: 6
Off-chip DRAM Size: 4 GiB Channels: 1 Width: 64-bit Data Rate: 3200 MT/s
Heartbeat CPU 0 instructions: 10000001 cycles: 2750195 heartbeat IPC: 3.63611 cumulative IPC: 3.63611 (Simulation time: 0 hr 5 min 21 sec) 
Heartbeat CPU 0 instructions: 20000004 cycles: 5607333 heartbeat IPC: 3.50001 cumulative IPC: 3.56676 (Simulation time: 0 hr 12 min 1 sec) 
Heartbeat CPU 0 instructions: 30000001 cycles: 8369738 heartbeat IPC: 3.62004 cumulative IPC: 3.58435 (Simulation time: 0 hr 17 min 49 sec) 
Heartbeat CPU 0 instructions: 40000000 cycles: 11093142 heartbeat IPC: 3.67188 cumulative IPC: 3.60584 (Simulation time: 0 hr 23 min 17 sec) 
Heartbeat CPU 0 instructions: 50000001 cycles: 13818077 heartbeat IPC: 3.66982 cumulative IPC: 3.61845 (Simulation time: 0 hr 28 min 42 sec) 
Heartbeat CPU 0 instructions: 60000002 cycles: 16545350 heartbeat IPC: 3.66667 cumulative IPC: 3.6264 (Simulation time: 0 hr 34 min 8 sec) 
Heartbeat CPU 0 instructions: 70000004 cycles: 19284474 heartbeat IPC: 3.65081 cumulative IPC: 3.62987 (Simulation time: 0 hr 39 min 46 sec) 
Heartbeat CPU 0 instructions: 80000004 cycles: 22141615 heartbeat IPC: 3.50001 cumulative IPC: 3.61311 (Simulation time: 0 hr 46 min 28 sec) 
Heartbeat CPU 0 instructions: 90000003 cycles: 24915395 heartbeat IPC: 3.60519 cumulative IPC: 3.61223 (Simulation time: 0 hr 52 min 22 sec) 
Heartbeat CPU 0 instructions: 100000000 cycles: 27638799 heartbeat IPC: 3.67188 cumulative IPC: 3.61811 (Simulation time: 0 hr 57 min 47 sec) 
Heartbeat CPU 0 instructions: 110000004 cycles: 30360987 heartbeat IPC: 3.67352 cumulative IPC: 3.62308 (Simulation time: 1 hr 3 min 13 sec) 
Heartbeat CPU 0 instructions: 120000003 cycles: 33080533 heartbeat IPC: 3.67709 cumulative IPC: 3.62752 (Simulation time: 1 hr 8 min 40 sec) 
Heartbeat CPU 0 instructions: 130000003 cycles: 35800081 heartbeat IPC: 3.67709 cumulative IPC: 3.63128 (Simulation time: 1 hr 14 min 7 sec) 
Heartbeat CPU 0 instructions: 140000000 cycles: 38657173 heartbeat IPC: 3.50007 cumulative IPC: 3.62158 (Simulation time: 1 hr 20 min 52 sec) 
Heartbeat CPU 0 instructions: 150000002 cycles: 41443203 heartbeat IPC: 3.58934 cumulative IPC: 3.61942 (Simulation time: 1 hr 26 min 54 sec) 
Heartbeat CPU 0 instructions: 160000000 cycles: 44166606 heartbeat IPC: 3.67188 cumulative IPC: 3.62265 (Simulation time: 1 hr 32 min 23 sec) 
Heartbeat CPU 0 instructions: 170000001 cycles: 46888296 heartbeat IPC: 3.67419 cumulative IPC: 3.62564 (Simulation time: 1 hr 37 min 52 sec) 
Heartbeat CPU 0 instructions: 180000003 cycles: 49603997 heartbeat IPC: 3.6823 cumulative IPC: 3.62874 (Simulation time: 1 hr 43 min 24 sec) 
Heartbeat CPU 0 instructions: 190000004 cycles: 52319696 heartbeat IPC: 3.6823 cumulative IPC: 3.63152 (Simulation time: 1 hr 48 min 52 sec) 
Heartbeat CPU 0 instructions: 200000000 cycles: 55163367 heartbeat IPC: 3.51658 cumulative IPC: 3.6256 (Simulation time: 1 hr 55 min 25 sec) 
Max paddr 33M
Warmup finished CPU 0 instructions: 200000000 cycles: 55163368 cumulative IPC: 3.6256 (Simulation time: 1 hr 55 min 25 sec) 

Warmup complete CPU 0 instructions: 200000000 cycles: 55163368 (Simulation time: 1 hr 55 min 25 sec) 

Heartbeat CPU 0 instructions: 210000004 cycles: 73302796 heartbeat IPC: 0.551286 cumulative IPC: 0.551286 (Simulation time: 2 hr 18 min 46 sec) 
Heartbeat CPU 0 instructions: 220000001 cycles: 83443199 heartbeat IPC: 0.986154 cumulative IPC: 0.707218 (Simulation time: 2 hr 30 min 47 sec) 
Heartbeat CPU 0 instructions: 230000002 cycles: 93420616 heartbeat IPC: 1.00227 cumulative IPC: 0.784166 (Simulation time: 2 hr 43 min 3 sec) 
Heartbeat CPU 0 instructions: 240000002 cycles: 115386485 heartbeat IPC: 0.455252 cumulative IPC: 0.664197 (Simulation time: 3 hr 12 min 7 sec) 
Heartbeat CPU 0 instructions: 250000002 cycles: 129883163 heartbeat IPC: 0.689814 cumulative IPC: 0.669167 (Simulation time: 3 hr 30 min 47 sec) 
Heartbeat CPU 0 instructions: 260000002 cycles: 138057514 heartbeat IPC: 1.22334 cumulative IPC: 0.723815 (Simulation time: 3 hr 41 min 32 sec) 
Heartbeat CPU 0 instructions: 270000004 cycles: 146211210 heartbeat IPC: 1.22644 cumulative IPC: 0.768827 (Simulation time: 3 hr 52 min 19 sec) 
Heartbeat CPU 0 instructions: 280000001 cycles: 158036900 heartbeat IPC: 0.845617 cumulative IPC: 0.777654 (Simulation time: 4 hr 5 min 40 sec) 
Heartbeat CPU 0 instructions: 290000003 cycles: 169867047 heartbeat IPC: 0.845299 cumulative IPC: 0.784631 (Simulation time: 4 hr 18 min 44 sec) 
Heartbeat CPU 0 instructions: 300000004 cycles: 188950766 heartbeat IPC: 0.524007 cumulative IPC: 0.747455 (Simulation time: 4 hr 43 min 26 sec) 
Heartbeat CPU 0 instructions: 310000002 cycles: 210279077 heartbeat IPC: 0.468861 cumulative IPC: 0.709149 (Simulation time: 5 hr 8 min 57 sec) 
Heartbeat CPU 0 instructions: 320000001 cycles: 225245567 heartbeat IPC: 0.66816 cumulative IPC: 0.705542 (Simulation time: 5 hr 22 min 23 sec) 
Heartbeat CPU 0 instructions: 330000004 cycles: 242055660 heartbeat IPC: 0.594881 cumulative IPC: 0.695588 (Simulation time: 5 hr 35 min 32 sec) 
Heartbeat CPU 0 instructions: 340000004 cycles: 253513237 heartbeat IPC: 0.872785 cumulative IPC: 0.705824 (Simulation time: 5 hr 46 min 31 sec) 
Heartbeat CPU 0 instructions: 350000002 cycles: 266112869 heartbeat IPC: 0.793674 cumulative IPC: 0.711071 (Simulation time: 5 hr 59 min 15 sec) 
