41 41 41
Available num physical pages: 35184372088576
WARNING: physical memory size is smaller than virtual memory size

*** ChampSim Multicore Out-of-Order Simulator ***

Warmup Instructions: 200000000
Simulation Instructions: 200000000
Number of CPUs: 1
Page size: 4096

Basic BTB sets: 1024 ways: 8 indirect buffer size: 4096 RAS size: 64
cpu0_L1D Gaze NEW NEW prefetcher
Pattern Table index_len: 6
Off-chip DRAM Size: 4 GiB Channels: 1 Width: 64-bit Data Rate: 3200 MT/s
Heartbeat CPU 0 instructions: 10000001 cycles: 2550536 heartbeat IPC: 3.92075 cumulative IPC: 3.92075 (Simulation time: 0 hr 9 min 46 sec) 
Heartbeat CPU 0 instructions: 20000004 cycles: 5204717 heartbeat IPC: 3.76765 cumulative IPC: 3.84267 (Simulation time: 0 hr 19 min 39 sec) 
Heartbeat CPU 0 instructions: 30000001 cycles: 7759526 heartbeat IPC: 3.91419 cumulative IPC: 3.86622 (Simulation time: 0 hr 29 min 37 sec) 
Heartbeat CPU 0 instructions: 40000000 cycles: 10313985 heartbeat IPC: 3.91473 cumulative IPC: 3.87823 (Simulation time: 0 hr 39 min 37 sec) 
Heartbeat CPU 0 instructions: 50000003 cycles: 12971920 heartbeat IPC: 3.76233 cumulative IPC: 3.85448 (Simulation time: 0 hr 49 min 45 sec) 
Heartbeat CPU 0 instructions: 60000002 cycles: 15525629 heartbeat IPC: 3.91588 cumulative IPC: 3.86458 (Simulation time: 0 hr 59 min 51 sec) 
Heartbeat CPU 0 instructions: 70000003 cycles: 18183352 heartbeat IPC: 3.76262 cumulative IPC: 3.84968 (Simulation time: 1 hr 10 min 1 sec) 
Heartbeat CPU 0 instructions: 80000000 cycles: 20738380 heartbeat IPC: 3.91386 cumulative IPC: 3.85759 (Simulation time: 1 hr 20 min 10 sec) 
Heartbeat CPU 0 instructions: 90000000 cycles: 23394806 heartbeat IPC: 3.76446 cumulative IPC: 3.84701 (Simulation time: 1 hr 30 min 13 sec) 
Heartbeat CPU 0 instructions: 100000002 cycles: 25945864 heartbeat IPC: 3.91995 cumulative IPC: 3.85418 (Simulation time: 1 hr 40 min 17 sec) 
Heartbeat CPU 0 instructions: 110000002 cycles: 28600647 heartbeat IPC: 3.76679 cumulative IPC: 3.84607 (Simulation time: 1 hr 50 min 21 sec) 
Heartbeat CPU 0 instructions: 120000000 cycles: 31150388 heartbeat IPC: 3.92197 cumulative IPC: 3.85228 (Simulation time: 2 hr 0 min 29 sec) 
Heartbeat CPU 0 instructions: 130000000 cycles: 33727229 heartbeat IPC: 3.88073 cumulative IPC: 3.85446 (Simulation time: 2 hr 10 min 32 sec) 
Heartbeat CPU 0 instructions: 140000000 cycles: 36353781 heartbeat IPC: 3.80728 cumulative IPC: 3.85105 (Simulation time: 2 hr 20 min 32 sec) 
Heartbeat CPU 0 instructions: 150000000 cycles: 38903885 heartbeat IPC: 3.92141 cumulative IPC: 3.85566 (Simulation time: 2 hr 30 min 24 sec) 
Heartbeat CPU 0 instructions: 160000003 cycles: 41557290 heartbeat IPC: 3.76875 cumulative IPC: 3.85011 (Simulation time: 2 hr 40 min 13 sec) 
Heartbeat CPU 0 instructions: 170000002 cycles: 44108031 heartbeat IPC: 3.92043 cumulative IPC: 3.85418 (Simulation time: 2 hr 49 min 56 sec) 
Heartbeat CPU 0 instructions: 180000000 cycles: 46762545 heartbeat IPC: 3.76717 cumulative IPC: 3.84924 (Simulation time: 2 hr 59 min 43 sec) 
Heartbeat CPU 0 instructions: 190000004 cycles: 49313373 heartbeat IPC: 3.9203 cumulative IPC: 3.85292 (Simulation time: 3 hr 9 min 30 sec) 
Heartbeat CPU 0 instructions: 200000001 cycles: 51967093 heartbeat IPC: 3.7683 cumulative IPC: 3.84859 (Simulation time: 3 hr 19 min 16 sec) 
Max paddr 68M
Warmup finished CPU 0 instructions: 200000001 cycles: 51967094 cumulative IPC: 3.84859 (Simulation time: 3 hr 19 min 16 sec) 

Warmup complete CPU 0 instructions: 200000001 cycles: 51967094 (Simulation time: 3 hr 19 min 16 sec) 

Heartbeat CPU 0 instructions: 210000001 cycles: 55272504 heartbeat IPC: 3.02535 cumulative IPC: 3.02535 (Simulation time: 3 hr 31 min 15 sec) 
Heartbeat CPU 0 instructions: 220000002 cycles: 59891551 heartbeat IPC: 2.16495 cumulative IPC: 2.52384 (Simulation time: 3 hr 44 min 24 sec) 
Heartbeat CPU 0 instructions: 230000001 cycles: 65155477 heartbeat IPC: 1.89973 cumulative IPC: 2.27473 (Simulation time: 3 hr 58 min 16 sec) 
Heartbeat CPU 0 instructions: 240000000 cycles: 68424390 heartbeat IPC: 3.05913 cumulative IPC: 2.43054 (Simulation time: 4 hr 10 min 20 sec) 
Heartbeat CPU 0 instructions: 250000000 cycles: 74966797 heartbeat IPC: 1.52849 cumulative IPC: 2.17395 (Simulation time: 4 hr 25 min 11 sec) 
Heartbeat CPU 0 instructions: 260000003 cycles: 78342549 heartbeat IPC: 2.96231 cumulative IPC: 2.27485 (Simulation time: 4 hr 37 min 21 sec) 
Heartbeat CPU 0 instructions: 270000000 cycles: 84823864 heartbeat IPC: 1.5429 cumulative IPC: 2.13046 (Simulation time: 4 hr 52 min 11 sec) 
Heartbeat CPU 0 instructions: 280000003 cycles: 88162716 heartbeat IPC: 2.99505 cumulative IPC: 2.21022 (Simulation time: 5 hr 4 min 21 sec) 
Heartbeat CPU 0 instructions: 290000000 cycles: 94510300 heartbeat IPC: 1.57541 cumulative IPC: 2.1155 (Simulation time: 5 hr 18 min 58 sec) 
Heartbeat CPU 0 instructions: 300000004 cycles: 97855473 heartbeat IPC: 2.98939 cumulative IPC: 2.17921 (Simulation time: 5 hr 29 min 54 sec) 
Heartbeat CPU 0 instructions: 310000000 cycles: 103263519 heartbeat IPC: 1.8491 cumulative IPC: 2.1444 (Simulation time: 5 hr 41 min 45 sec) 
Heartbeat CPU 0 instructions: 320000001 cycles: 107615892 heartbeat IPC: 2.2976 cumulative IPC: 2.15639 (Simulation time: 5 hr 52 min 54 sec) 
Heartbeat CPU 0 instructions: 330000004 cycles: 110811462 heartbeat IPC: 3.12934 cumulative IPC: 2.20922 (Simulation time: 6 hr 4 min 15 sec) 
