41 41 41
Available num physical pages: 35184372088576
WARNING: physical memory size is smaller than virtual memory size

*** ChampSim Multicore Out-of-Order Simulator ***

Warmup Instructions: 200000000
Simulation Instructions: 200000000
Number of CPUs: 1
Page size: 4096

Basic BTB sets: 1024 ways: 8 indirect buffer size: 4096 RAS size: 64
cpu0_L1D Gaze NEW NEW prefetcher
Pattern Table index_len: 6
Off-chip DRAM Size: 4 GiB Channels: 1 Width: 64-bit Data Rate: 3200 MT/s
Heartbeat CPU 0 instructions: 10000003 cycles: 2500051 heartbeat IPC: 3.99992 cumulative IPC: 3.99992 (Simulation time: 0 hr 7 min 34 sec) 
Heartbeat CPU 0 instructions: 20000003 cycles: 5000051 heartbeat IPC: 4 cumulative IPC: 3.99996 (Simulation time: 0 hr 15 min 13 sec) 
Heartbeat CPU 0 instructions: 30000003 cycles: 7500051 heartbeat IPC: 4 cumulative IPC: 3.99998 (Simulation time: 0 hr 22 min 52 sec) 
Heartbeat CPU 0 instructions: 40000003 cycles: 10000051 heartbeat IPC: 4 cumulative IPC: 3.99998 (Simulation time: 0 hr 30 min 36 sec) 
Heartbeat CPU 0 instructions: 50000003 cycles: 12500051 heartbeat IPC: 4 cumulative IPC: 3.99999 (Simulation time: 0 hr 38 min 22 sec) 
Heartbeat CPU 0 instructions: 60000003 cycles: 15000051 heartbeat IPC: 4 cumulative IPC: 3.99999 (Simulation time: 0 hr 46 min 5 sec) 
Heartbeat CPU 0 instructions: 70000003 cycles: 17500051 heartbeat IPC: 4 cumulative IPC: 3.99999 (Simulation time: 0 hr 53 min 48 sec) 
Heartbeat CPU 0 instructions: 80000003 cycles: 20000051 heartbeat IPC: 4 cumulative IPC: 3.99999 (Simulation time: 1 hr 1 min 35 sec) 
Heartbeat CPU 0 instructions: 90000003 cycles: 22500051 heartbeat IPC: 4 cumulative IPC: 4 (Simulation time: 1 hr 9 min 25 sec) 
Heartbeat CPU 0 instructions: 100000003 cycles: 25000051 heartbeat IPC: 4 cumulative IPC: 4 (Simulation time: 1 hr 17 min 11 sec) 
Heartbeat CPU 0 instructions: 110000003 cycles: 27500051 heartbeat IPC: 4 cumulative IPC: 4 (Simulation time: 1 hr 24 min 59 sec) 
Heartbeat CPU 0 instructions: 120000003 cycles: 30000051 heartbeat IPC: 4 cumulative IPC: 4 (Simulation time: 1 hr 32 min 47 sec) 
Heartbeat CPU 0 instructions: 130000003 cycles: 32500051 heartbeat IPC: 4 cumulative IPC: 4 (Simulation time: 1 hr 40 min 38 sec) 
Heartbeat CPU 0 instructions: 140000003 cycles: 35000051 heartbeat IPC: 4 cumulative IPC: 4 (Simulation time: 1 hr 48 min 27 sec) 
Heartbeat CPU 0 instructions: 150000003 cycles: 37500051 heartbeat IPC: 4 cumulative IPC: 4 (Simulation time: 1 hr 56 min 18 sec) 
Heartbeat CPU 0 instructions: 160000003 cycles: 40000051 heartbeat IPC: 4 cumulative IPC: 4 (Simulation time: 2 hr 4 min 10 sec) 
Heartbeat CPU 0 instructions: 170000003 cycles: 42500051 heartbeat IPC: 4 cumulative IPC: 4 (Simulation time: 2 hr 11 min 52 sec) 
Heartbeat CPU 0 instructions: 180000003 cycles: 45000051 heartbeat IPC: 4 cumulative IPC: 4 (Simulation time: 2 hr 19 min 34 sec) 
Heartbeat CPU 0 instructions: 190000003 cycles: 47500051 heartbeat IPC: 4 cumulative IPC: 4 (Simulation time: 2 hr 27 min 17 sec) 
Heartbeat CPU 0 instructions: 200000003 cycles: 50000051 heartbeat IPC: 4 cumulative IPC: 4 (Simulation time: 2 hr 34 min 59 sec) 
Max paddr 214M
Warmup finished CPU 0 instructions: 200000003 cycles: 50000052 cumulative IPC: 4 (Simulation time: 2 hr 34 min 59 sec) 

Warmup complete CPU 0 instructions: 200000003 cycles: 50000052 (Simulation time: 2 hr 34 min 59 sec) 

Heartbeat CPU 0 instructions: 210000002 cycles: 56749819 heartbeat IPC: 1.48154 cumulative IPC: 1.48154 (Simulation time: 2 hr 48 min 34 sec) 
Heartbeat CPU 0 instructions: 220000004 cycles: 63513401 heartbeat IPC: 1.47851 cumulative IPC: 1.48002 (Simulation time: 3 hr 2 min 6 sec) 
Heartbeat CPU 0 instructions: 230000003 cycles: 70318053 heartbeat IPC: 1.46959 cumulative IPC: 1.47653 (Simulation time: 3 hr 15 min 42 sec) 
Heartbeat CPU 0 instructions: 240000002 cycles: 77123334 heartbeat IPC: 1.46945 cumulative IPC: 1.47475 (Simulation time: 3 hr 29 min 24 sec) 
Heartbeat CPU 0 instructions: 250000000 cycles: 83849336 heartbeat IPC: 1.48677 cumulative IPC: 1.47714 (Simulation time: 3 hr 42 min 59 sec) 
Heartbeat CPU 0 instructions: 260000004 cycles: 90566960 heartbeat IPC: 1.48863 cumulative IPC: 1.47904 (Simulation time: 3 hr 56 min 43 sec) 
Heartbeat CPU 0 instructions: 270000004 cycles: 97324429 heartbeat IPC: 1.47985 cumulative IPC: 1.47916 (Simulation time: 4 hr 10 min 27 sec) 
Heartbeat CPU 0 instructions: 280000004 cycles: 104097323 heartbeat IPC: 1.47648 cumulative IPC: 1.47882 (Simulation time: 4 hr 24 min 7 sec) 
Heartbeat CPU 0 instructions: 290000004 cycles: 110884884 heartbeat IPC: 1.47329 cumulative IPC: 1.47821 (Simulation time: 4 hr 37 min 48 sec) 
Heartbeat CPU 0 instructions: 300000003 cycles: 117543225 heartbeat IPC: 1.50188 cumulative IPC: 1.48054 (Simulation time: 4 hr 51 min 11 sec) 
Heartbeat CPU 0 instructions: 310000004 cycles: 124300306 heartbeat IPC: 1.47993 cumulative IPC: 1.48048 (Simulation time: 5 hr 4 min 57 sec) 
Heartbeat CPU 0 instructions: 320000000 cycles: 131058705 heartbeat IPC: 1.47964 cumulative IPC: 1.48041 (Simulation time: 5 hr 18 min 33 sec) 
Heartbeat CPU 0 instructions: 330000001 cycles: 137799542 heartbeat IPC: 1.4835 cumulative IPC: 1.48065 (Simulation time: 5 hr 30 min 46 sec) 
Heartbeat CPU 0 instructions: 340000000 cycles: 144541266 heartbeat IPC: 1.4833 cumulative IPC: 1.48084 (Simulation time: 5 hr 42 min 21 sec) 
Heartbeat CPU 0 instructions: 350000003 cycles: 150367424 heartbeat IPC: 1.7164 cumulative IPC: 1.49451 (Simulation time: 5 hr 50 min 58 sec) 
Heartbeat CPU 0 instructions: 360000004 cycles: 155568279 heartbeat IPC: 1.92277 cumulative IPC: 1.51561 (Simulation time: 5 hr 58 min 25 sec) 
Heartbeat CPU 0 instructions: 370000002 cycles: 163368521 heartbeat IPC: 1.28202 cumulative IPC: 1.49954 (Simulation time: 6 hr 9 min 13 sec) 
