41 41 41
Available num physical pages: 35184372088576
WARNING: physical memory size is smaller than virtual memory size

*** ChampSim Multicore Out-of-Order Simulator ***

Warmup Instructions: 200000000
Simulation Instructions: 200000000
Number of CPUs: 1
Page size: 4096

Basic BTB sets: 1024 ways: 8 indirect buffer size: 4096 RAS size: 64
Off-chip DRAM Size: 4 GiB Channels: 1 Width: 64-bit Data Rate: 3200 MT/s
Heartbeat CPU 0 instructions: 10000000 cycles: 3084667 heartbeat IPC: 3.24185 cumulative IPC: 3.24185 (Simulation time: 0 hr 4 min 12 sec) 
Heartbeat CPU 0 instructions: 20000002 cycles: 5587511 heartbeat IPC: 3.99546 cumulative IPC: 3.57942 (Simulation time: 0 hr 8 min 28 sec) 
Heartbeat CPU 0 instructions: 30000001 cycles: 8089639 heartbeat IPC: 3.9966 cumulative IPC: 3.70845 (Simulation time: 0 hr 12 min 52 sec) 
Heartbeat CPU 0 instructions: 40000000 cycles: 10591768 heartbeat IPC: 3.9966 cumulative IPC: 3.77652 (Simulation time: 0 hr 17 min 15 sec) 
Heartbeat CPU 0 instructions: 50000000 cycles: 13092477 heartbeat IPC: 3.99887 cumulative IPC: 3.81899 (Simulation time: 0 hr 21 min 38 sec) 
Heartbeat CPU 0 instructions: 60000002 cycles: 15593894 heartbeat IPC: 3.99774 cumulative IPC: 3.84766 (Simulation time: 0 hr 25 min 55 sec) 
Heartbeat CPU 0 instructions: 70000003 cycles: 18094605 heartbeat IPC: 3.99887 cumulative IPC: 3.86856 (Simulation time: 0 hr 30 min 2 sec) 
Heartbeat CPU 0 instructions: 80000001 cycles: 20595313 heartbeat IPC: 3.99887 cumulative IPC: 3.88438 (Simulation time: 0 hr 34 min 17 sec) 
Heartbeat CPU 0 instructions: 90000000 cycles: 23096020 heartbeat IPC: 3.99887 cumulative IPC: 3.89678 (Simulation time: 0 hr 38 min 34 sec) 
Heartbeat CPU 0 instructions: 100000003 cycles: 25596729 heartbeat IPC: 3.99887 cumulative IPC: 3.90675 (Simulation time: 0 hr 43 min 11 sec) 
Heartbeat CPU 0 instructions: 110000001 cycles: 28097435 heartbeat IPC: 3.99887 cumulative IPC: 3.91495 (Simulation time: 0 hr 47 min 31 sec) 
Heartbeat CPU 0 instructions: 120000000 cycles: 30598142 heartbeat IPC: 3.99887 cumulative IPC: 3.92181 (Simulation time: 0 hr 51 min 55 sec) 
Heartbeat CPU 0 instructions: 130000003 cycles: 33098851 heartbeat IPC: 3.99887 cumulative IPC: 3.92763 (Simulation time: 0 hr 56 min 9 sec) 
Heartbeat CPU 0 instructions: 140000001 cycles: 35681470 heartbeat IPC: 3.87204 cumulative IPC: 3.92361 (Simulation time: 1 hr 0 min 10 sec) 
Heartbeat CPU 0 instructions: 150000001 cycles: 38338063 heartbeat IPC: 3.76422 cumulative IPC: 3.91257 (Simulation time: 1 hr 3 min 34 sec) 
Heartbeat CPU 0 instructions: 160000001 cycles: 40997013 heartbeat IPC: 3.76089 cumulative IPC: 3.90273 (Simulation time: 1 hr 6 min 45 sec) 
Heartbeat CPU 0 instructions: 170000003 cycles: 43659655 heartbeat IPC: 3.75567 cumulative IPC: 3.89376 (Simulation time: 1 hr 10 min 20 sec) 
Heartbeat CPU 0 instructions: 180000004 cycles: 46323920 heartbeat IPC: 3.75339 cumulative IPC: 3.88569 (Simulation time: 1 hr 13 min 59 sec) 
Heartbeat CPU 0 instructions: 190000001 cycles: 48989541 heartbeat IPC: 3.75147 cumulative IPC: 3.87838 (Simulation time: 1 hr 17 min 13 sec) 
Heartbeat CPU 0 instructions: 200000004 cycles: 51655896 heartbeat IPC: 3.75044 cumulative IPC: 3.87178 (Simulation time: 1 hr 20 min 37 sec) 
Max paddr 105M
Warmup finished CPU 0 instructions: 200000004 cycles: 51655897 cumulative IPC: 3.87178 (Simulation time: 1 hr 20 min 37 sec) 

Warmup complete CPU 0 instructions: 200000004 cycles: 51655897 (Simulation time: 1 hr 20 min 37 sec) 

Heartbeat CPU 0 instructions: 210000003 cycles: 71814596 heartbeat IPC: 0.496064 cumulative IPC: 0.496064 (Simulation time: 1 hr 31 min 48 sec) 
Heartbeat CPU 0 instructions: 220000001 cycles: 92540728 heartbeat IPC: 0.482483 cumulative IPC: 0.489179 (Simulation time: 1 hr 43 min 14 sec) 
Heartbeat CPU 0 instructions: 230000001 cycles: 113726247 heartbeat IPC: 0.472021 cumulative IPC: 0.483323 (Simulation time: 1 hr 54 min 50 sec) 
Heartbeat CPU 0 instructions: 240000001 cycles: 134968176 heartbeat IPC: 0.470768 cumulative IPC: 0.480122 (Simulation time: 2 hr 6 min 25 sec) 
Heartbeat CPU 0 instructions: 250000004 cycles: 156406359 heartbeat IPC: 0.466458 cumulative IPC: 0.477325 (Simulation time: 2 hr 18 min 11 sec) 
Heartbeat CPU 0 instructions: 260000004 cycles: 178416167 heartbeat IPC: 0.454343 cumulative IPC: 0.473335 (Simulation time: 2 hr 30 min 19 sec) 
Heartbeat CPU 0 instructions: 270000001 cycles: 200554250 heartbeat IPC: 0.451711 cumulative IPC: 0.47012 (Simulation time: 2 hr 42 min 25 sec) 
Heartbeat CPU 0 instructions: 280000000 cycles: 222612025 heartbeat IPC: 0.453355 cumulative IPC: 0.467957 (Simulation time: 2 hr 54 min 13 sec) 
Heartbeat CPU 0 instructions: 290000000 cycles: 245394948 heartbeat IPC: 0.438926 cumulative IPC: 0.464543 (Simulation time: 3 hr 6 min 30 sec) 
Heartbeat CPU 0 instructions: 300000001 cycles: 269065991 heartbeat IPC: 0.422458 cumulative IPC: 0.459961 (Simulation time: 3 hr 18 min 33 sec) 
Heartbeat CPU 0 instructions: 310000004 cycles: 293176480 heartbeat IPC: 0.414758 cumulative IPC: 0.455448 (Simulation time: 3 hr 29 min 40 sec) 
Heartbeat CPU 0 instructions: 320000000 cycles: 317544005 heartbeat IPC: 0.410383 cumulative IPC: 0.451318 (Simulation time: 3 hr 40 min 1 sec) 
Heartbeat CPU 0 instructions: 330000001 cycles: 343257325 heartbeat IPC: 0.388904 cumulative IPC: 0.445814 (Simulation time: 3 hr 49 min 0 sec) 
