41 41 41
Available num physical pages: 35184372088576
WARNING: physical memory size is smaller than virtual memory size

*** ChampSim Multicore Out-of-Order Simulator ***

Warmup Instructions: 200000000
Simulation Instructions: 200000000
Number of CPUs: 1
Page size: 4096

Basic BTB sets: 1024 ways: 8 indirect buffer size: 4096 RAS size: 64
Off-chip DRAM Size: 4 GiB Channels: 1 Width: 64-bit Data Rate: 3200 MT/s
Heartbeat CPU 0 instructions: 10000003 cycles: 2500077 heartbeat IPC: 3.99988 cumulative IPC: 3.99988 (Simulation time: 0 hr 3 min 26 sec) 
Heartbeat CPU 0 instructions: 20000003 cycles: 5000077 heartbeat IPC: 4 cumulative IPC: 3.99994 (Simulation time: 0 hr 7 min 35 sec) 
Heartbeat CPU 0 instructions: 30000003 cycles: 7500077 heartbeat IPC: 4 cumulative IPC: 3.99996 (Simulation time: 0 hr 11 min 24 sec) 
Heartbeat CPU 0 instructions: 40000003 cycles: 10000077 heartbeat IPC: 4 cumulative IPC: 3.99997 (Simulation time: 0 hr 15 min 9 sec) 
Heartbeat CPU 0 instructions: 50000003 cycles: 12500077 heartbeat IPC: 4 cumulative IPC: 3.99998 (Simulation time: 0 hr 19 min 3 sec) 
Heartbeat CPU 0 instructions: 60000003 cycles: 15000077 heartbeat IPC: 4 cumulative IPC: 3.99998 (Simulation time: 0 hr 22 min 48 sec) 
Heartbeat CPU 0 instructions: 70000003 cycles: 17500077 heartbeat IPC: 4 cumulative IPC: 3.99999 (Simulation time: 0 hr 26 min 36 sec) 
Heartbeat CPU 0 instructions: 80000003 cycles: 20000077 heartbeat IPC: 4 cumulative IPC: 3.99999 (Simulation time: 0 hr 30 min 25 sec) 
Heartbeat CPU 0 instructions: 90000003 cycles: 22500077 heartbeat IPC: 4 cumulative IPC: 3.99999 (Simulation time: 0 hr 34 min 14 sec) 
Heartbeat CPU 0 instructions: 100000003 cycles: 25000077 heartbeat IPC: 4 cumulative IPC: 3.99999 (Simulation time: 0 hr 38 min 2 sec) 
Heartbeat CPU 0 instructions: 110000003 cycles: 27500077 heartbeat IPC: 4 cumulative IPC: 3.99999 (Simulation time: 0 hr 41 min 45 sec) 
Heartbeat CPU 0 instructions: 120000003 cycles: 30000077 heartbeat IPC: 4 cumulative IPC: 3.99999 (Simulation time: 0 hr 45 min 21 sec) 
Heartbeat CPU 0 instructions: 130000003 cycles: 32500077 heartbeat IPC: 4 cumulative IPC: 4 (Simulation time: 0 hr 49 min 7 sec) 
Heartbeat CPU 0 instructions: 140000003 cycles: 35000077 heartbeat IPC: 4 cumulative IPC: 4 (Simulation time: 0 hr 52 min 59 sec) 
Heartbeat CPU 0 instructions: 150000003 cycles: 37500077 heartbeat IPC: 4 cumulative IPC: 4 (Simulation time: 0 hr 56 min 47 sec) 
Heartbeat CPU 0 instructions: 160000003 cycles: 40000077 heartbeat IPC: 4 cumulative IPC: 4 (Simulation time: 1 hr 0 min 32 sec) 
Heartbeat CPU 0 instructions: 170000003 cycles: 42500077 heartbeat IPC: 4 cumulative IPC: 4 (Simulation time: 1 hr 4 min 24 sec) 
Heartbeat CPU 0 instructions: 180000003 cycles: 45000077 heartbeat IPC: 4 cumulative IPC: 4 (Simulation time: 1 hr 7 min 59 sec) 
Heartbeat CPU 0 instructions: 190000003 cycles: 47500077 heartbeat IPC: 4 cumulative IPC: 4 (Simulation time: 1 hr 11 min 59 sec) 
Heartbeat CPU 0 instructions: 200000003 cycles: 50000077 heartbeat IPC: 4 cumulative IPC: 4 (Simulation time: 1 hr 15 min 51 sec) 
Max paddr 66M
Warmup finished CPU 0 instructions: 200000003 cycles: 50000078 cumulative IPC: 4 (Simulation time: 1 hr 15 min 51 sec) 

Warmup complete CPU 0 instructions: 200000003 cycles: 50000078 (Simulation time: 1 hr 15 min 51 sec) 

Heartbeat CPU 0 instructions: 210000001 cycles: 87123027 heartbeat IPC: 0.269376 cumulative IPC: 0.269376 (Simulation time: 1 hr 28 min 54 sec) 
Heartbeat CPU 0 instructions: 220000001 cycles: 124822795 heartbeat IPC: 0.265254 cumulative IPC: 0.267299 (Simulation time: 1 hr 41 min 6 sec) 
Heartbeat CPU 0 instructions: 230000001 cycles: 162412127 heartbeat IPC: 0.266033 cumulative IPC: 0.266876 (Simulation time: 1 hr 53 min 47 sec) 
Heartbeat CPU 0 instructions: 240000000 cycles: 201828148 heartbeat IPC: 0.253704 cumulative IPC: 0.263456 (Simulation time: 2 hr 6 min 37 sec) 
Heartbeat CPU 0 instructions: 250000004 cycles: 241360769 heartbeat IPC: 0.252956 cumulative IPC: 0.261287 (Simulation time: 2 hr 19 min 16 sec) 
Heartbeat CPU 0 instructions: 260000000 cycles: 280119568 heartbeat IPC: 0.258006 cumulative IPC: 0.260735 (Simulation time: 2 hr 31 min 59 sec) 
Heartbeat CPU 0 instructions: 270000002 cycles: 318607346 heartbeat IPC: 0.259823 cumulative IPC: 0.260604 (Simulation time: 2 hr 45 min 19 sec) 
Heartbeat CPU 0 instructions: 280000001 cycles: 356018876 heartbeat IPC: 0.267298 cumulative IPC: 0.261422 (Simulation time: 2 hr 57 min 53 sec) 
Heartbeat CPU 0 instructions: 290000003 cycles: 391795449 heartbeat IPC: 0.279513 cumulative IPC: 0.263316 (Simulation time: 3 hr 9 min 38 sec) 
Heartbeat CPU 0 instructions: 300000001 cycles: 429555360 heartbeat IPC: 0.264832 cumulative IPC: 0.263467 (Simulation time: 3 hr 21 min 42 sec) 
Heartbeat CPU 0 instructions: 310000000 cycles: 466912816 heartbeat IPC: 0.267685 cumulative IPC: 0.263845 (Simulation time: 3 hr 32 min 4 sec) 
Heartbeat CPU 0 instructions: 320000001 cycles: 504800193 heartbeat IPC: 0.263941 cumulative IPC: 0.263853 (Simulation time: 3 hr 42 min 3 sec) 
Heartbeat CPU 0 instructions: 330000001 cycles: 543255205 heartbeat IPC: 0.260045 cumulative IPC: 0.263556 (Simulation time: 3 hr 50 min 54 sec) 
