41 41 41
Available num physical pages: 35184372088576
WARNING: physical memory size is smaller than virtual memory size

*** ChampSim Multicore Out-of-Order Simulator ***

Warmup Instructions: 200000000
Simulation Instructions: 200000000
Number of CPUs: 1
Page size: 4096

Basic BTB sets: 1024 ways: 8 indirect buffer size: 4096 RAS size: 64
Off-chip DRAM Size: 4 GiB Channels: 1 Width: 64-bit Data Rate: 3200 MT/s
Heartbeat CPU 0 instructions: 10000003 cycles: 2500051 heartbeat IPC: 3.99992 cumulative IPC: 3.99992 (Simulation time: 0 hr 4 min 7 sec) 
Heartbeat CPU 0 instructions: 20000003 cycles: 5000051 heartbeat IPC: 4 cumulative IPC: 3.99996 (Simulation time: 0 hr 8 min 53 sec) 
Heartbeat CPU 0 instructions: 30000003 cycles: 7500051 heartbeat IPC: 4 cumulative IPC: 3.99998 (Simulation time: 0 hr 13 min 8 sec) 
Heartbeat CPU 0 instructions: 40000003 cycles: 10000051 heartbeat IPC: 4 cumulative IPC: 3.99998 (Simulation time: 0 hr 17 min 45 sec) 
Heartbeat CPU 0 instructions: 50000003 cycles: 12500051 heartbeat IPC: 4 cumulative IPC: 3.99999 (Simulation time: 0 hr 22 min 24 sec) 
Heartbeat CPU 0 instructions: 60000003 cycles: 15000051 heartbeat IPC: 4 cumulative IPC: 3.99999 (Simulation time: 0 hr 26 min 52 sec) 
Heartbeat CPU 0 instructions: 70000003 cycles: 17500051 heartbeat IPC: 4 cumulative IPC: 3.99999 (Simulation time: 0 hr 31 min 35 sec) 
Heartbeat CPU 0 instructions: 80000003 cycles: 20000051 heartbeat IPC: 4 cumulative IPC: 3.99999 (Simulation time: 0 hr 36 min 27 sec) 
Heartbeat CPU 0 instructions: 90000003 cycles: 22500051 heartbeat IPC: 4 cumulative IPC: 4 (Simulation time: 0 hr 41 min 12 sec) 
Heartbeat CPU 0 instructions: 100000003 cycles: 25000051 heartbeat IPC: 4 cumulative IPC: 4 (Simulation time: 0 hr 46 min 0 sec) 
Heartbeat CPU 0 instructions: 110000003 cycles: 27500051 heartbeat IPC: 4 cumulative IPC: 4 (Simulation time: 0 hr 50 min 40 sec) 
Heartbeat CPU 0 instructions: 120000003 cycles: 30000051 heartbeat IPC: 4 cumulative IPC: 4 (Simulation time: 0 hr 55 min 14 sec) 
Heartbeat CPU 0 instructions: 130000003 cycles: 32500051 heartbeat IPC: 4 cumulative IPC: 4 (Simulation time: 1 hr 0 min 5 sec) 
Heartbeat CPU 0 instructions: 140000003 cycles: 35000051 heartbeat IPC: 4 cumulative IPC: 4 (Simulation time: 1 hr 4 min 49 sec) 
Heartbeat CPU 0 instructions: 150000003 cycles: 37500051 heartbeat IPC: 4 cumulative IPC: 4 (Simulation time: 1 hr 9 min 24 sec) 
Heartbeat CPU 0 instructions: 160000003 cycles: 40000051 heartbeat IPC: 4 cumulative IPC: 4 (Simulation time: 1 hr 13 min 31 sec) 
Heartbeat CPU 0 instructions: 170000003 cycles: 42500051 heartbeat IPC: 4 cumulative IPC: 4 (Simulation time: 1 hr 18 min 19 sec) 
Heartbeat CPU 0 instructions: 180000003 cycles: 45000051 heartbeat IPC: 4 cumulative IPC: 4 (Simulation time: 1 hr 22 min 22 sec) 
Heartbeat CPU 0 instructions: 190000003 cycles: 47500051 heartbeat IPC: 4 cumulative IPC: 4 (Simulation time: 1 hr 27 min 2 sec) 
Heartbeat CPU 0 instructions: 200000003 cycles: 50000051 heartbeat IPC: 4 cumulative IPC: 4 (Simulation time: 1 hr 31 min 15 sec) 
Max paddr 214M
Warmup finished CPU 0 instructions: 200000003 cycles: 50000052 cumulative IPC: 4 (Simulation time: 1 hr 31 min 15 sec) 

Warmup complete CPU 0 instructions: 200000003 cycles: 50000052 (Simulation time: 1 hr 31 min 15 sec) 

Heartbeat CPU 0 instructions: 210000001 cycles: 64410177 heartbeat IPC: 0.693957 cumulative IPC: 0.693957 (Simulation time: 1 hr 42 min 28 sec) 
Heartbeat CPU 0 instructions: 220000003 cycles: 78876529 heartbeat IPC: 0.69126 cumulative IPC: 0.692606 (Simulation time: 1 hr 53 min 27 sec) 
Heartbeat CPU 0 instructions: 230000002 cycles: 93271472 heartbeat IPC: 0.694689 cumulative IPC: 0.693299 (Simulation time: 2 hr 4 min 26 sec) 
Heartbeat CPU 0 instructions: 240000002 cycles: 107714429 heartbeat IPC: 0.692379 cumulative IPC: 0.693069 (Simulation time: 2 hr 15 min 41 sec) 
Heartbeat CPU 0 instructions: 250000002 cycles: 122072030 heartbeat IPC: 0.696496 cumulative IPC: 0.693751 (Simulation time: 2 hr 27 min 4 sec) 
Heartbeat CPU 0 instructions: 260000003 cycles: 136457221 heartbeat IPC: 0.69516 cumulative IPC: 0.693986 (Simulation time: 2 hr 38 min 48 sec) 
Heartbeat CPU 0 instructions: 270000001 cycles: 150880442 heartbeat IPC: 0.693327 cumulative IPC: 0.693892 (Simulation time: 2 hr 50 min 22 sec) 
Heartbeat CPU 0 instructions: 280000004 cycles: 165258186 heartbeat IPC: 0.69552 cumulative IPC: 0.694095 (Simulation time: 3 hr 1 min 20 sec) 
Heartbeat CPU 0 instructions: 290000001 cycles: 179693779 heartbeat IPC: 0.692732 cumulative IPC: 0.693943 (Simulation time: 3 hr 12 min 1 sec) 
Heartbeat CPU 0 instructions: 300000002 cycles: 194063419 heartbeat IPC: 0.695912 cumulative IPC: 0.694139 (Simulation time: 3 hr 22 min 40 sec) 
Heartbeat CPU 0 instructions: 310000004 cycles: 208477077 heartbeat IPC: 0.693787 cumulative IPC: 0.694107 (Simulation time: 3 hr 32 min 7 sec) 
Heartbeat CPU 0 instructions: 320000000 cycles: 222850987 heartbeat IPC: 0.695705 cumulative IPC: 0.69424 (Simulation time: 3 hr 41 min 8 sec) 
Heartbeat CPU 0 instructions: 330000001 cycles: 237230972 heartbeat IPC: 0.695412 cumulative IPC: 0.69433 (Simulation time: 3 hr 49 min 1 sec) 
