41 41 41
Available num physical pages: 35184372088576
WARNING: physical memory size is smaller than virtual memory size

*** ChampSim Multicore Out-of-Order Simulator ***

Warmup Instructions: 200000000
Simulation Instructions: 200000000
Number of CPUs: 1
Page size: 4096

Basic BTB sets: 1024 ways: 8 indirect buffer size: 4096 RAS size: 64
Off-chip DRAM Size: 4 GiB Channels: 1 Width: 64-bit Data Rate: 3200 MT/s
Heartbeat CPU 0 instructions: 10000002 cycles: 2500074 heartbeat IPC: 3.99989 cumulative IPC: 3.99989 (Simulation time: 0 hr 3 min 10 sec) 
Heartbeat CPU 0 instructions: 20000003 cycles: 5014441 heartbeat IPC: 3.97715 cumulative IPC: 3.98849 (Simulation time: 0 hr 7 min 11 sec) 
Heartbeat CPU 0 instructions: 30000003 cycles: 7514441 heartbeat IPC: 4 cumulative IPC: 3.99232 (Simulation time: 0 hr 11 min 9 sec) 
Heartbeat CPU 0 instructions: 40000001 cycles: 10018994 heartbeat IPC: 3.99273 cumulative IPC: 3.99242 (Simulation time: 0 hr 14 min 52 sec) 
Heartbeat CPU 0 instructions: 50000003 cycles: 12523547 heartbeat IPC: 3.99273 cumulative IPC: 3.99248 (Simulation time: 0 hr 18 min 40 sec) 
Heartbeat CPU 0 instructions: 60000003 cycles: 15023547 heartbeat IPC: 4 cumulative IPC: 3.99374 (Simulation time: 0 hr 22 min 9 sec) 
Heartbeat CPU 0 instructions: 70000003 cycles: 17523547 heartbeat IPC: 4 cumulative IPC: 3.99463 (Simulation time: 0 hr 25 min 11 sec) 
Heartbeat CPU 0 instructions: 80000002 cycles: 20809987 heartbeat IPC: 3.04281 cumulative IPC: 3.84431 (Simulation time: 0 hr 28 min 30 sec) 
Heartbeat CPU 0 instructions: 90000001 cycles: 23324937 heartbeat IPC: 3.97623 cumulative IPC: 3.85854 (Simulation time: 0 hr 32 min 12 sec) 
Heartbeat CPU 0 instructions: 100000001 cycles: 25824937 heartbeat IPC: 4 cumulative IPC: 3.87223 (Simulation time: 0 hr 36 min 15 sec) 
Heartbeat CPU 0 instructions: 110000001 cycles: 28324937 heartbeat IPC: 4 cumulative IPC: 3.88351 (Simulation time: 0 hr 40 min 29 sec) 
Heartbeat CPU 0 instructions: 120000000 cycles: 30829491 heartbeat IPC: 3.99273 cumulative IPC: 3.89238 (Simulation time: 0 hr 44 min 0 sec) 
Heartbeat CPU 0 instructions: 130000001 cycles: 33334043 heartbeat IPC: 3.99274 cumulative IPC: 3.89992 (Simulation time: 0 hr 47 min 41 sec) 
Heartbeat CPU 0 instructions: 140000001 cycles: 35834043 heartbeat IPC: 4 cumulative IPC: 3.9069 (Simulation time: 0 hr 50 min 52 sec) 
Heartbeat CPU 0 instructions: 150000003 cycles: 39120429 heartbeat IPC: 3.04286 cumulative IPC: 3.83432 (Simulation time: 0 hr 54 min 15 sec) 
Heartbeat CPU 0 instructions: 160000003 cycles: 41620429 heartbeat IPC: 4 cumulative IPC: 3.84427 (Simulation time: 0 hr 57 min 50 sec) 
Heartbeat CPU 0 instructions: 170000000 cycles: 44135157 heartbeat IPC: 3.97658 cumulative IPC: 3.85181 (Simulation time: 1 hr 1 min 46 sec) 
Heartbeat CPU 0 instructions: 180000000 cycles: 46635157 heartbeat IPC: 4 cumulative IPC: 3.85975 (Simulation time: 1 hr 5 min 33 sec) 
Heartbeat CPU 0 instructions: 190000003 cycles: 49139711 heartbeat IPC: 3.99273 cumulative IPC: 3.86653 (Simulation time: 1 hr 9 min 43 sec) 
Heartbeat CPU 0 instructions: 200000000 cycles: 51644264 heartbeat IPC: 3.99273 cumulative IPC: 3.87265 (Simulation time: 1 hr 13 min 36 sec) 
Max paddr 107M
Warmup finished CPU 0 instructions: 200000000 cycles: 51644265 cumulative IPC: 3.87265 (Simulation time: 1 hr 13 min 36 sec) 

Warmup complete CPU 0 instructions: 200000000 cycles: 51644265 (Simulation time: 1 hr 13 min 36 sec) 

Heartbeat CPU 0 instructions: 210000000 cycles: 73337343 heartbeat IPC: 0.460977 cumulative IPC: 0.460977 (Simulation time: 1 hr 21 min 37 sec) 
Heartbeat CPU 0 instructions: 220000000 cycles: 76124052 heartbeat IPC: 3.58847 cumulative IPC: 0.817001 (Simulation time: 1 hr 25 min 2 sec) 
Heartbeat CPU 0 instructions: 230000002 cycles: 95457296 heartbeat IPC: 0.517244 cumulative IPC: 0.684728 (Simulation time: 1 hr 33 min 4 sec) 
Heartbeat CPU 0 instructions: 240000000 cycles: 131509648 heartbeat IPC: 0.277375 cumulative IPC: 0.500843 (Simulation time: 1 hr 44 min 39 sec) 
Heartbeat CPU 0 instructions: 250000004 cycles: 165836266 heartbeat IPC: 0.29132 cumulative IPC: 0.43786 (Simulation time: 1 hr 55 min 57 sec) 
Heartbeat CPU 0 instructions: 260000001 cycles: 200173456 heartbeat IPC: 0.29123 cumulative IPC: 0.403962 (Simulation time: 2 hr 7 min 12 sec) 
Heartbeat CPU 0 instructions: 270000002 cycles: 252761465 heartbeat IPC: 0.190158 cumulative IPC: 0.348056 (Simulation time: 2 hr 22 min 17 sec) 
Heartbeat CPU 0 instructions: 280000003 cycles: 259471074 heartbeat IPC: 1.4904 cumulative IPC: 0.384936 (Simulation time: 2 hr 26 min 19 sec) 
Heartbeat CPU 0 instructions: 290000001 cycles: 273042341 heartbeat IPC: 0.736851 cumulative IPC: 0.406508 (Simulation time: 2 hr 33 min 29 sec) 
Heartbeat CPU 0 instructions: 300000001 cycles: 305669582 heartbeat IPC: 0.306493 cumulative IPC: 0.393662 (Simulation time: 2 hr 44 min 12 sec) 
Heartbeat CPU 0 instructions: 310000000 cycles: 343122045 heartbeat IPC: 0.267006 cumulative IPC: 0.377388 (Simulation time: 2 hr 55 min 50 sec) 
Heartbeat CPU 0 instructions: 320000001 cycles: 379981058 heartbeat IPC: 0.271305 cumulative IPC: 0.365479 (Simulation time: 3 hr 7 min 5 sec) 
Heartbeat CPU 0 instructions: 330000000 cycles: 421653713 heartbeat IPC: 0.239966 cumulative IPC: 0.351343 (Simulation time: 3 hr 18 min 43 sec) 
Heartbeat CPU 0 instructions: 340000001 cycles: 476558084 heartbeat IPC: 0.182135 cumulative IPC: 0.329479 (Simulation time: 3 hr 32 min 23 sec) 
Heartbeat CPU 0 instructions: 350000000 cycles: 504714235 heartbeat IPC: 0.355163 cumulative IPC: 0.331075 (Simulation time: 3 hr 39 min 16 sec) 
Heartbeat CPU 0 instructions: 360000000 cycles: 507223517 heartbeat IPC: 3.98521 cumulative IPC: 0.351202 (Simulation time: 3 hr 41 min 58 sec) 
Heartbeat CPU 0 instructions: 370000002 cycles: 523331673 heartbeat IPC: 0.620804 cumulative IPC: 0.360409 (Simulation time: 3 hr 47 min 9 sec) 
