41 41 41
Available num physical pages: 35184372088576
WARNING: physical memory size is smaller than virtual memory size

*** ChampSim Multicore Out-of-Order Simulator ***

Warmup Instructions: 200000000
Simulation Instructions: 200000000
Number of CPUs: 1
Page size: 4096

Basic BTB sets: 1024 ways: 8 indirect buffer size: 4096 RAS size: 64
Off-chip DRAM Size: 4 GiB Channels: 1 Width: 64-bit Data Rate: 3200 MT/s
Heartbeat CPU 0 instructions: 10000003 cycles: 2500068 heartbeat IPC: 3.9999 cumulative IPC: 3.9999 (Simulation time: 0 hr 3 min 38 sec) 
Heartbeat CPU 0 instructions: 20000003 cycles: 5000113 heartbeat IPC: 3.99993 cumulative IPC: 3.99992 (Simulation time: 0 hr 7 min 57 sec) 
Heartbeat CPU 0 instructions: 30000003 cycles: 7500113 heartbeat IPC: 4 cumulative IPC: 3.99995 (Simulation time: 0 hr 12 min 19 sec) 
Heartbeat CPU 0 instructions: 40000003 cycles: 10000113 heartbeat IPC: 4 cumulative IPC: 3.99996 (Simulation time: 0 hr 16 min 50 sec) 
Heartbeat CPU 0 instructions: 50000003 cycles: 12500113 heartbeat IPC: 4 cumulative IPC: 3.99997 (Simulation time: 0 hr 21 min 10 sec) 
Heartbeat CPU 0 instructions: 60000003 cycles: 15000113 heartbeat IPC: 4 cumulative IPC: 3.99998 (Simulation time: 0 hr 25 min 21 sec) 
Heartbeat CPU 0 instructions: 70000003 cycles: 17500113 heartbeat IPC: 4 cumulative IPC: 3.99998 (Simulation time: 0 hr 29 min 40 sec) 
Heartbeat CPU 0 instructions: 80000003 cycles: 20000113 heartbeat IPC: 4 cumulative IPC: 3.99998 (Simulation time: 0 hr 33 min 58 sec) 
Heartbeat CPU 0 instructions: 90000003 cycles: 22500113 heartbeat IPC: 4 cumulative IPC: 3.99999 (Simulation time: 0 hr 38 min 28 sec) 
Heartbeat CPU 0 instructions: 100000003 cycles: 25000113 heartbeat IPC: 4 cumulative IPC: 3.99999 (Simulation time: 0 hr 43 min 0 sec) 
Heartbeat CPU 0 instructions: 110000003 cycles: 27500113 heartbeat IPC: 4 cumulative IPC: 3.99999 (Simulation time: 0 hr 47 min 19 sec) 
Heartbeat CPU 0 instructions: 120000003 cycles: 30000113 heartbeat IPC: 4 cumulative IPC: 3.99999 (Simulation time: 0 hr 51 min 38 sec) 
Heartbeat CPU 0 instructions: 130000003 cycles: 32500113 heartbeat IPC: 4 cumulative IPC: 3.99999 (Simulation time: 0 hr 56 min 3 sec) 
Heartbeat CPU 0 instructions: 140000003 cycles: 35000113 heartbeat IPC: 4 cumulative IPC: 3.99999 (Simulation time: 1 hr 0 min 32 sec) 
Heartbeat CPU 0 instructions: 150000003 cycles: 37500113 heartbeat IPC: 4 cumulative IPC: 3.99999 (Simulation time: 1 hr 5 min 5 sec) 
Heartbeat CPU 0 instructions: 160000003 cycles: 40000113 heartbeat IPC: 4 cumulative IPC: 3.99999 (Simulation time: 1 hr 10 min 5 sec) 
Heartbeat CPU 0 instructions: 170000003 cycles: 42500113 heartbeat IPC: 4 cumulative IPC: 3.99999 (Simulation time: 1 hr 14 min 37 sec) 
Heartbeat CPU 0 instructions: 180000003 cycles: 45000113 heartbeat IPC: 4 cumulative IPC: 4 (Simulation time: 1 hr 18 min 48 sec) 
Heartbeat CPU 0 instructions: 190000003 cycles: 47500113 heartbeat IPC: 4 cumulative IPC: 4 (Simulation time: 1 hr 22 min 51 sec) 
Heartbeat CPU 0 instructions: 200000000 cycles: 50000135 heartbeat IPC: 3.99997 cumulative IPC: 3.99999 (Simulation time: 1 hr 26 min 35 sec) 
Max paddr 137M
Warmup finished CPU 0 instructions: 200000000 cycles: 50000136 cumulative IPC: 3.99999 (Simulation time: 1 hr 26 min 35 sec) 

Warmup complete CPU 0 instructions: 200000000 cycles: 50000136 (Simulation time: 1 hr 26 min 35 sec) 

Heartbeat CPU 0 instructions: 210000003 cycles: 93666508 heartbeat IPC: 0.22901 cumulative IPC: 0.22901 (Simulation time: 1 hr 55 min 48 sec) 
Heartbeat CPU 0 instructions: 220000001 cycles: 137444720 heartbeat IPC: 0.228425 cumulative IPC: 0.228717 (Simulation time: 2 hr 25 min 7 sec) 
Heartbeat CPU 0 instructions: 230000004 cycles: 181235334 heartbeat IPC: 0.22836 cumulative IPC: 0.228598 (Simulation time: 2 hr 55 min 16 sec) 
Heartbeat CPU 0 instructions: 240000003 cycles: 225205317 heartbeat IPC: 0.227428 cumulative IPC: 0.228304 (Simulation time: 3 hr 23 min 32 sec) 
Heartbeat CPU 0 instructions: 250000001 cycles: 268748833 heartbeat IPC: 0.229656 cumulative IPC: 0.228573 (Simulation time: 3 hr 46 min 47 sec) 
